adapter speed: 1000 kHz
Error: session's transport is not selected.
Info : session transport was not selected, defaulting to JTAG
cc3200_dbginit
Info : clock speed 1000 kHz
Info : JTAG tap: cc3200.jrc tap/device found: 0x0b97c02f (mfg: 0x017, part: 0xb97c, ver: 0x0)
Info : JTAG tap: cc3200.dap enabled
Info : cc3200.cpu: hardware has 6 breakpoints, 4 watchpoints
Info : accepting 'gdb' connection from pipe
target state: halted
target halted due to debug-request, current mode: Thread 
xPSR: 0x81000000 pc: 0x00002820 msp: 0x20003f98
requesting target halt and executing a soft reset
Warn : soft_reset_halt is deprecated, please use 'reset halt' instead.
target state: halted
target halted due to debug-request, current mode: Thread 
xPSR: 0x01000000 pc: 0x00008d1c msp: 0x20004000
Error: ftdi device did not accept all data: 0, tried 131
Error: unable to purge ftdi rx buffers: LIBUSB_ERROR_NO_DEVICE
Error: error while flushing MPSSE queue: -4
Polling target cc3200.cpu failed, GDB will be halted. Polling again in 100ms
Warn : target cc3200.cpu is not halted
Warn : keep_alive() was not invoked in the 1000ms timelimit. GDB alive packet not sent! (60019). Workaround: increase "set remotetimeout" in GDB
Warn : keep_alive() was not invoked in the 1000ms timelimit. GDB alive packet not sent! (60060). Workaround: increase "set remotetimeout" in GDB
Warn : keep_alive() was not invoked in the 1000ms timelimit. GDB alive packet not sent! (60060). Workaround: increase "set remotetimeout" in GDB
Warn : keep_alive() was not invoked in the 1000ms timelimit. GDB alive packet not sent! (60030). Workaround: increase "set remotetimeout" in GDB
Warn : keep_alive() was not invoked in the 1000ms timelimit. GDB alive packet not sent! (60060). Workaround: increase "set remotetimeout" in GDB
Warn : keep_alive() was not invoked in the 1000ms timelimit. GDB alive packet not sent! (60043). Workaround: increase "set remotetimeout" in GDB
Warn : keep_alive() was not invoked in the 1000ms timelimit. GDB alive packet not sent! (60035). Workaround: increase "set remotetimeout" in GDB
Warn : keep_alive() was not invoked in the 1000ms timelimit. GDB alive packet not sent! (60045). Workaround: increase "set remotetimeout" in GDB
Warn : keep_alive() was not invoked in the 1000ms timelimit. GDB alive packet not sent! (60059). Workaround: increase "set remotetimeout" in GDB
Warn : keep_alive() was not invoked in the 1000ms timelimit. GDB alive packet not sent! (60013). Workaround: increase "set remotetimeout" in GDB
Warn : keep_alive() was not invoked in the 1000ms timelimit. GDB alive packet not sent! (60022). Workaround: increase "set remotetimeout" in GDB
Warn : keep_alive() was not invoked in the 1000ms timelimit. GDB alive packet not sent! (60028). Workaround: increase "set remotetimeout" in GDB
Warn : keep_alive() was not invoked in the 1000ms timelimit. GDB alive packet not sent! (60005). Workaround: increase "set remotetimeout" in GDB
Warn : keep_alive() was not invoked in the 1000ms timelimit. GDB alive packet not sent! (60007). Workaround: increase "set remotetimeout" in GDB
Warn : keep_alive() was not invoked in the 1000ms timelimit. GDB alive packet not sent! (60043). Workaround: increase "set remotetimeout" in GDB
Warn : keep_alive() was not invoked in the 1000ms timelimit. GDB alive packet not sent! (60057). Workaround: increase "set remotetimeout" in GDB
Warn : keep_alive() was not invoked in the 1000ms timelimit. GDB alive packet not sent! (60007). Workaround: increase "set remotetimeout" in GDB
Warn : keep_alive() was not invoked in the 1000ms timelimit. GDB alive packet not sent! (60027). Workaround: increase "set remotetimeout" in GDB
Warn : keep_alive() was not invoked in the 1000ms timelimit. GDB alive packet not sent! (60059). Workaround: increase "set remotetimeout" in GDB
Warn : keep_alive() was not invoked in the 1000ms timelimit. GDB alive packet not sent! (60039). Workaround: increase "set remotetimeout" in GDB
Warn : keep_alive() was not invoked in the 1000ms timelimit. GDB alive packet not sent! (60024). Workaround: increase "set remotetimeout" in GDB
Warn : keep_alive() was not invoked in the 1000ms timelimit. GDB alive packet not sent! (60005). Workaround: increase "set remotetimeout" in GDB
Warn : keep_alive() was not invoked in the 1000ms timelimit. GDB alive packet not sent! (60056). Workaround: increase "set remotetimeout" in GDB
Warn : keep_alive() was not invoked in the 1000ms timelimit. GDB alive packet not sent! (60002). Workaround: increase "set remotetimeout" in GDB
Warn : keep_alive() was not invoked in the 1000ms timelimit. GDB alive packet not sent! (60034). Workaround: increase "set remotetimeout" in GDB
Warn : keep_alive() was not invoked in the 1000ms timelimit. GDB alive packet not sent! (60055). Workaround: increase "set remotetimeout" in GDB
Warn : keep_alive() was not invoked in the 1000ms timelimit. GDB alive packet not sent! (60046). Workaround: increase "set remotetimeout" in GDB
Warn : keep_alive() was not invoked in the 1000ms timelimit. GDB alive packet not sent! (60051). Workaround: increase "set remotetimeout" in GDB
Warn : keep_alive() was not invoked in the 1000ms timelimit. GDB alive packet not sent! (60019). Workaround: increase "set remotetimeout" in GDB
Warn : keep_alive() was not invoked in the 1000ms timelimit. GDB alive packet not sent! (60060). Workaround: increase "set remotetimeout" in GDB
Warn : keep_alive() was not invoked in the 1000ms timelimit. GDB alive packet not sent! (60035). Workaround: increase "set remotetimeout" in GDB
Warn : keep_alive() was not invoked in the 1000ms timelimit. GDB alive packet not sent! (60060). Workaround: increase "set remotetimeout" in GDB
Warn : keep_alive() was not invoked in the 1000ms timelimit. GDB alive packet not sent! (60008). Workaround: increase "set remotetimeout" in GDB
Warn : keep_alive() was not invoked in the 1000ms timelimit. GDB alive packet not sent! (60002). Workaround: increase "set remotetimeout" in GDB
Warn : keep_alive() was not invoked in the 1000ms timelimit. GDB alive packet not sent! (60002). Workaround: increase "set remotetimeout" in GDB
Warn : keep_alive() was not invoked in the 1000ms timelimit. GDB alive packet not sent! (60034). Workaround: increase "set remotetimeout" in GDB
Warn : keep_alive() was not invoked in the 1000ms timelimit. GDB alive packet not sent! (60051). Workaround: increase "set remotetimeout" in GDB
Warn : keep_alive() was not invoked in the 1000ms timelimit. GDB alive packet not sent! (60033). Workaround: increase "set remotetimeout" in GDB
Warn : keep_alive() was not invoked in the 1000ms timelimit. GDB alive packet not sent! (60041). Workaround: increase "set remotetimeout" in GDB
Warn : keep_alive() was not invoked in the 1000ms timelimit. GDB alive packet not sent! (60004). Workaround: increase "set remotetimeout" in GDB
Warn : keep_alive() was not invoked in the 1000ms timelimit. GDB alive packet not sent! (60035). Workaround: increase "set remotetimeout" in GDB
Warn : keep_alive() was not invoked in the 1000ms timelimit. GDB alive packet not sent! (60009). Workaround: increase "set remotetimeout" in GDB
Warn : keep_alive() was not invoked in the 1000ms timelimit. GDB alive packet not sent! (60032). Workaround: increase "set remotetimeout" in GDB
Warn : keep_alive() was not invoked in the 1000ms timelimit. GDB alive packet not sent! (60056). Workaround: increase "set remotetimeout" in GDB
Warn : keep_alive() was not invoked in the 1000ms timelimit. GDB alive packet not sent! (60025). Workaround: increase "set remotetimeout" in GDB
Warn : keep_alive() was not invoked in the 1000ms timelimit. GDB alive packet not sent! (60045). Workaround: increase "set remotetimeout" in GDB
Warn : keep_alive() was not invoked in the 1000ms timelimit. GDB alive packet not sent! (60040). Workaround: increase "set remotetimeout" in GDB
Warn : keep_alive() was not invoked in the 1000ms timelimit. GDB alive packet not sent! (60023). Workaround: increase "set remotetimeout" in GDB
Warn : keep_alive() was not invoked in the 1000ms timelimit. GDB alive packet not sent! (60044). Workaround: increase "set remotetimeout" in GDB
Warn : keep_alive() was not invoked in the 1000ms timelimit. GDB alive packet not sent! (60010). Workaround: increase "set remotetimeout" in GDB
Warn : keep_alive() was not invoked in the 1000ms timelimit. GDB alive packet not sent! (60044). Workaround: increase "set remotetimeout" in GDB
Warn : keep_alive() was not invoked in the 1000ms timelimit. GDB alive packet not sent! (60047). Workaround: increase "set remotetimeout" in GDB
Warn : keep_alive() was not invoked in the 1000ms timelimit. GDB alive packet not sent! (60039). Workaround: increase "set remotetimeout" in GDB
Warn : keep_alive() was not invoked in the 1000ms timelimit. GDB alive packet not sent! (60036). Workaround: increase "set remotetimeout" in GDB
Warn : keep_alive() was not invoked in the 1000ms timelimit. GDB alive packet not sent! (60018). Workaround: increase "set remotetimeout" in GDB
Warn : keep_alive() was not invoked in the 1000ms timelimit. GDB alive packet not sent! (60052). Workaround: increase "set remotetimeout" in GDB
Warn : keep_alive() was not invoked in the 1000ms timelimit. GDB alive packet not sent! (60060). Workaround: increase "set remotetimeout" in GDB
Warn : keep_alive() was not invoked in the 1000ms timelimit. GDB alive packet not sent! (60049). Workaround: increase "set remotetimeout" in GDB
Warn : keep_alive() was not invoked in the 1000ms timelimit. GDB alive packet not sent! (60044). Workaround: increase "set remotetimeout" in GDB
Warn : keep_alive() was not invoked in the 1000ms timelimit. GDB alive packet not sent! (60007). Workaround: increase "set remotetimeout" in GDB
Warn : keep_alive() was not invoked in the 1000ms timelimit. GDB alive packet not sent! (60030). Workaround: increase "set remotetimeout" in GDB
Warn : keep_alive() was not invoked in the 1000ms timelimit. GDB alive packet not sent! (60018). Workaround: increase "set remotetimeout" in GDB
Warn : keep_alive() was not invoked in the 1000ms timelimit. GDB alive packet not sent! (60060). Workaround: increase "set remotetimeout" in GDB
Warn : keep_alive() was not invoked in the 1000ms timelimit. GDB alive packet not sent! (60051). Workaround: increase "set remotetimeout" in GDB
Warn : keep_alive() was not invoked in the 1000ms timelimit. GDB alive packet not sent! (60007). Workaround: increase "set remotetimeout" in GDB
Warn : keep_alive() was not invoked in the 1000ms timelimit. GDB alive packet not sent! (60044). Workaround: increase "set remotetimeout" in GDB
Warn : keep_alive() was not invoked in the 1000ms timelimit. GDB alive packet not sent! (60045). Workaround: increase "set remotetimeout" in GDB
Warn : keep_alive() was not invoked in the 1000ms timelimit. GDB alive packet not sent! (60022). Workaround: increase "set remotetimeout" in GDB
Warn : keep_alive() was not invoked in the 1000ms timelimit. GDB alive packet not sent! (60054). Workaround: increase "set remotetimeout" in GDB
Warn : keep_alive() was not invoked in the 1000ms timelimit. GDB alive packet not sent! (60031). Workaround: increase "set remotetimeout" in GDB
Warn : keep_alive() was not invoked in the 1000ms timelimit. GDB alive packet not sent! (60039). Workaround: increase "set remotetimeout" in GDB
Warn : keep_alive() was not invoked in the 1000ms timelimit. GDB alive packet not sent! (60060). Workaround: increase "set remotetimeout" in GDB
Warn : keep_alive() was not invoked in the 1000ms timelimit. GDB alive packet not sent! (60039). Workaround: increase "set remotetimeout" in GDB
Warn : keep_alive() was not invoked in the 1000ms timelimit. GDB alive packet not sent! (60048). Workaround: increase "set remotetimeout" in GDB
Warn : keep_alive() was not invoked in the 1000ms timelimit. GDB alive packet not sent! (60060). Workaround: increase "set remotetimeout" in GDB
Warn : keep_alive() was not invoked in the 1000ms timelimit. GDB alive packet not sent! (60030). Workaround: increase "set remotetimeout" in GDB
Warn : keep_alive() was not invoked in the 1000ms timelimit. GDB alive packet not sent! (60045). Workaround: increase "set remotetimeout" in GDB
Warn : keep_alive() was not invoked in the 1000ms timelimit. GDB alive packet not sent! (60039). Workaround: increase "set remotetimeout" in GDB
Warn : keep_alive() was not invoked in the 1000ms timelimit. GDB alive packet not sent! (60058). Workaround: increase "set remotetimeout" in GDB
Warn : keep_alive() was not invoked in the 1000ms timelimit. GDB alive packet not sent! (60056). Workaround: increase "set remotetimeout" in GDB
Warn : keep_alive() was not invoked in the 1000ms timelimit. GDB alive packet not sent! (60011). Workaround: increase "set remotetimeout" in GDB
Warn : keep_alive() was not invoked in the 1000ms timelimit. GDB alive packet not sent! (60060). Workaround: increase "set remotetimeout" in GDB
Warn : keep_alive() was not invoked in the 1000ms timelimit. GDB alive packet not sent! (60029). Workaround: increase "set remotetimeout" in GDB
Warn : keep_alive() was not invoked in the 1000ms timelimit. GDB alive packet not sent! (60060). Workaround: increase "set remotetimeout" in GDB
Warn : keep_alive() was not invoked in the 1000ms timelimit. GDB alive packet not sent! (60021). Workaround: increase "set remotetimeout" in GDB
Warn : keep_alive() was not invoked in the 1000ms timelimit. GDB alive packet not sent! (60060). Workaround: increase "set remotetimeout" in GDB
Warn : keep_alive() was not invoked in the 1000ms timelimit. GDB alive packet not sent! (60060). Workaround: increase "set remotetimeout" in GDB
Warn : keep_alive() was not invoked in the 1000ms timelimit. GDB alive packet not sent! (60060). Workaround: increase "set remotetimeout" in GDB
Warn : keep_alive() was not invoked in the 1000ms timelimit. GDB alive packet not sent! (60023). Workaround: increase "set remotetimeout" in GDB
Warn : keep_alive() was not invoked in the 1000ms timelimit. GDB alive packet not sent! (60035). Workaround: increase "set remotetimeout" in GDB
Warn : keep_alive() was not invoked in the 1000ms timelimit. GDB alive packet not sent! (60026). Workaround: increase "set remotetimeout" in GDB
Warn : keep_alive() was not invoked in the 1000ms timelimit. GDB alive packet not sent! (60019). Workaround: increase "set remotetimeout" in GDB
Warn : keep_alive() was not invoked in the 1000ms timelimit. GDB alive packet not sent! (60029). Workaround: increase "set remotetimeout" in GDB
Warn : keep_alive() was not invoked in the 1000ms timelimit. GDB alive packet not sent! (60009). Workaround: increase "set remotetimeout" in GDB
Warn : keep_alive() was not invoked in the 1000ms timelimit. GDB alive packet not sent! (60060). Workaround: increase "set remotetimeout" in GDB
Warn : keep_alive() was not invoked in the 1000ms timelimit. GDB alive packet not sent! (60035). Workaround: increase "set remotetimeout" in GDB
Warn : keep_alive() was not invoked in the 1000ms timelimit. GDB alive packet not sent! (60031). Workaround: increase "set remotetimeout" in GDB
Warn : keep_alive() was not invoked in the 1000ms timelimit. GDB alive packet not sent! (60056). Workaround: increase "set remotetimeout" in GDB
Warn : keep_alive() was not invoked in the 1000ms timelimit. GDB alive packet not sent! (60018). Workaround: increase "set remotetimeout" in GDB
Warn : keep_alive() was not invoked in the 1000ms timelimit. GDB alive packet not sent! (60043). Workaround: increase "set remotetimeout" in GDB
Warn : keep_alive() was not invoked in the 1000ms timelimit. GDB alive packet not sent! (60042). Workaround: increase "set remotetimeout" in GDB
Warn : keep_alive() was not invoked in the 1000ms timelimit. GDB alive packet not sent! (60014). Workaround: increase "set remotetimeout" in GDB
Warn : keep_alive() was not invoked in the 1000ms timelimit. GDB alive packet not sent! (60034). Workaround: increase "set remotetimeout" in GDB
Warn : keep_alive() was not invoked in the 1000ms timelimit. GDB alive packet not sent! (60018). Workaround: increase "set remotetimeout" in GDB
Warn : keep_alive() was not invoked in the 1000ms timelimit. GDB alive packet not sent! (60049). Workaround: increase "set remotetimeout" in GDB
Warn : keep_alive() was not invoked in the 1000ms timelimit. GDB alive packet not sent! (60051). Workaround: increase "set remotetimeout" in GDB
Warn : keep_alive() was not invoked in the 1000ms timelimit. GDB alive packet not sent! (60043). Workaround: increase "set remotetimeout" in GDB
Warn : keep_alive() was not invoked in the 1000ms timelimit. GDB alive packet not sent! (60005). Workaround: increase "set remotetimeout" in GDB
Warn : keep_alive() was not invoked in the 1000ms timelimit. GDB alive packet not sent! (60027). Workaround: increase "set remotetimeout" in GDB
Warn : keep_alive() was not invoked in the 1000ms timelimit. GDB alive packet not sent! (60013). Workaround: increase "set remotetimeout" in GDB
Warn : keep_alive() was not invoked in the 1000ms timelimit. GDB alive packet not sent! (60019). Workaround: increase "set remotetimeout" in GDB
Warn : keep_alive() was not invoked in the 1000ms timelimit. GDB alive packet not sent! (60056). Workaround: increase "set remotetimeout" in GDB
Warn : keep_alive() was not invoked in the 1000ms timelimit. GDB alive packet not sent! (60055). Workaround: increase "set remotetimeout" in GDB
Warn : keep_alive() was not invoked in the 1000ms timelimit. GDB alive packet not sent! (60028). Workaround: increase "set remotetimeout" in GDB
Warn : keep_alive() was not invoked in the 1000ms timelimit. GDB alive packet not sent! (60046). Workaround: increase "set remotetimeout" in GDB
Warn : keep_alive() was not invoked in the 1000ms timelimit. GDB alive packet not sent! (60039). Workaround: increase "set remotetimeout" in GDB
Warn : keep_alive() was not invoked in the 1000ms timelimit. GDB alive packet not sent! (60016). Workaround: increase "set remotetimeout" in GDB
Warn : keep_alive() was not invoked in the 1000ms timelimit. GDB alive packet not sent! (60060). Workaround: increase "set remotetimeout" in GDB
Warn : keep_alive() was not invoked in the 1000ms timelimit. GDB alive packet not sent! (60029). Workaround: increase "set remotetimeout" in GDB
Warn : keep_alive() was not invoked in the 1000ms timelimit. GDB alive packet not sent! (60043). Workaround: increase "set remotetimeout" in GDB
Warn : keep_alive() was not invoked in the 1000ms timelimit. GDB alive packet not sent! (60060). Workaround: increase "set remotetimeout" in GDB
Warn : keep_alive() was not invoked in the 1000ms timelimit. GDB alive packet not sent! (60060). Workaround: increase "set remotetimeout" in GDB
Warn : keep_alive() was not invoked in the 1000ms timelimit. GDB alive packet not sent! (60011). Workaround: increase "set remotetimeout" in GDB
Warn : keep_alive() was not invoked in the 1000ms timelimit. GDB alive packet not sent! (60059). Workaround: increase "set remotetimeout" in GDB
Warn : keep_alive() was not invoked in the 1000ms timelimit. GDB alive packet not sent! (60054). Workaround: increase "set remotetimeout" in GDB
Warn : keep_alive() was not invoked in the 1000ms timelimit. GDB alive packet not sent! (60037). Workaround: increase "set remotetimeout" in GDB
Warn : keep_alive() was not invoked in the 1000ms timelimit. GDB alive packet not sent! (60001). Workaround: increase "set remotetimeout" in GDB
Warn : keep_alive() was not invoked in the 1000ms timelimit. GDB alive packet not sent! (60028). Workaround: increase "set remotetimeout" in GDB
Warn : keep_alive() was not invoked in the 1000ms timelimit. GDB alive packet not sent! (60020). Workaround: increase "set remotetimeout" in GDB
Warn : keep_alive() was not invoked in the 1000ms timelimit. GDB alive packet not sent! (60017). Workaround: increase "set remotetimeout" in GDB
Warn : keep_alive() was not invoked in the 1000ms timelimit. GDB alive packet not sent! (60060). Workaround: increase "set remotetimeout" in GDB
Warn : keep_alive() was not invoked in the 1000ms timelimit. GDB alive packet not sent! (60017). Workaround: increase "set remotetimeout" in GDB
Warn : keep_alive() was not invoked in the 1000ms timelimit. GDB alive packet not sent! (60055). Workaround: increase "set remotetimeout" in GDB
Warn : keep_alive() was not invoked in the 1000ms timelimit. GDB alive packet not sent! (60000). Workaround: increase "set remotetimeout" in GDB
Warn : keep_alive() was not invoked in the 1000ms timelimit. GDB alive packet not sent! (60033). Workaround: increase "set remotetimeout" in GDB
Warn : keep_alive() was not invoked in the 1000ms timelimit. GDB alive packet not sent! (60044). Workaround: increase "set remotetimeout" in GDB
Warn : keep_alive() was not invoked in the 1000ms timelimit. GDB alive packet not sent! (60001). Workaround: increase "set remotetimeout" in GDB
Warn : keep_alive() was not invoked in the 1000ms timelimit. GDB alive packet not sent! (60025). Workaround: increase "set remotetimeout" in GDB
Warn : keep_alive() was not invoked in the 1000ms timelimit. GDB alive packet not sent! (60058). Workaround: increase "set remotetimeout" in GDB
Warn : keep_alive() was not invoked in the 1000ms timelimit. GDB alive packet not sent! (60053). Workaround: increase "set remotetimeout" in GDB
Warn : keep_alive() was not invoked in the 1000ms timelimit. GDB alive packet not sent! (60027). Workaround: increase "set remotetimeout" in GDB
Warn : keep_alive() was not invoked in the 1000ms timelimit. GDB alive packet not sent! (60047). Workaround: increase "set remotetimeout" in GDB
Warn : keep_alive() was not invoked in the 1000ms timelimit. GDB alive packet not sent! (60034). Workaround: increase "set remotetimeout" in GDB
Warn : keep_alive() was not invoked in the 1000ms timelimit. GDB alive packet not sent! (60049). Workaround: increase "set remotetimeout" in GDB
Warn : keep_alive() was not invoked in the 1000ms timelimit. GDB alive packet not sent! (60001). Workaround: increase "set remotetimeout" in GDB
Warn : keep_alive() was not invoked in the 1000ms timelimit. GDB alive packet not sent! (60060). Workaround: increase "set remotetimeout" in GDB
Warn : keep_alive() was not invoked in the 1000ms timelimit. GDB alive packet not sent! (60060). Workaround: increase "set remotetimeout" in GDB
Warn : keep_alive() was not invoked in the 1000ms timelimit. GDB alive packet not sent! (60010). Workaround: increase "set remotetimeout" in GDB
Warn : keep_alive() was not invoked in the 1000ms timelimit. GDB alive packet not sent! (60060). Workaround: increase "set remotetimeout" in GDB
Warn : keep_alive() was not invoked in the 1000ms timelimit. GDB alive packet not sent! (60012). Workaround: increase "set remotetimeout" in GDB
Warn : keep_alive() was not invoked in the 1000ms timelimit. GDB alive packet not sent! (60058). Workaround: increase "set remotetimeout" in GDB
Warn : keep_alive() was not invoked in the 1000ms timelimit. GDB alive packet not sent! (60055). Workaround: increase "set remotetimeout" in GDB
Warn : keep_alive() was not invoked in the 1000ms timelimit. GDB alive packet not sent! (60060). Workaround: increase "set remotetimeout" in GDB
Warn : keep_alive() was not invoked in the 1000ms timelimit. GDB alive packet not sent! (60001). Workaround: increase "set remotetimeout" in GDB
Warn : keep_alive() was not invoked in the 1000ms timelimit. GDB alive packet not sent! (60007). Workaround: increase "set remotetimeout" in GDB
Warn : keep_alive() was not invoked in the 1000ms timelimit. GDB alive packet not sent! (60044). Workaround: increase "set remotetimeout" in GDB
Warn : keep_alive() was not invoked in the 1000ms timelimit. GDB alive packet not sent! (60019). Workaround: increase "set remotetimeout" in GDB
Warn : keep_alive() was not invoked in the 1000ms timelimit. GDB alive packet not sent! (60028). Workaround: increase "set remotetimeout" in GDB
Warn : keep_alive() was not invoked in the 1000ms timelimit. GDB alive packet not sent! (60039). Workaround: increase "set remotetimeout" in GDB
Warn : keep_alive() was not invoked in the 1000ms timelimit. GDB alive packet not sent! (60032). Workaround: increase "set remotetimeout" in GDB
Warn : keep_alive() was not invoked in the 1000ms timelimit. GDB alive packet not sent! (60060). Workaround: increase "set remotetimeout" in GDB
Warn : keep_alive() was not invoked in the 1000ms timelimit. GDB alive packet not sent! (60039). Workaround: increase "set remotetimeout" in GDB
Warn : keep_alive() was not invoked in the 1000ms timelimit. GDB alive packet not sent! (60035). Workaround: increase "set remotetimeout" in GDB
Warn : keep_alive() was not invoked in the 1000ms timelimit. GDB alive packet not sent! (60038). Workaround: increase "set remotetimeout" in GDB
Warn : keep_alive() was not invoked in the 1000ms timelimit. GDB alive packet not sent! (60060). Workaround: increase "set remotetimeout" in GDB
Warn : keep_alive() was not invoked in the 1000ms timelimit. GDB alive packet not sent! (60056). Workaround: increase "set remotetimeout" in GDB
Warn : keep_alive() was not invoked in the 1000ms timelimit. GDB alive packet not sent! (60060). Workaround: increase "set remotetimeout" in GDB
Warn : keep_alive() was not invoked in the 1000ms timelimit. GDB alive packet not sent! (60060). Workaround: increase "set remotetimeout" in GDB
Warn : keep_alive() was not invoked in the 1000ms timelimit. GDB alive packet not sent! (60009). Workaround: increase "set remotetimeout" in GDB
Warn : keep_alive() was not invoked in the 1000ms timelimit. GDB alive packet not sent! (60016). Workaround: increase "set remotetimeout" in GDB
Warn : keep_alive() was not invoked in the 1000ms timelimit. GDB alive packet not sent! (60050). Workaround: increase "set remotetimeout" in GDB
Warn : keep_alive() was not invoked in the 1000ms timelimit. GDB alive packet not sent! (60055). Workaround: increase "set remotetimeout" in GDB
Warn : keep_alive() was not invoked in the 1000ms timelimit. GDB alive packet not sent! (60026). Workaround: increase "set remotetimeout" in GDB
Warn : keep_alive() was not invoked in the 1000ms timelimit. GDB alive packet not sent! (60016). Workaround: increase "set remotetimeout" in GDB
Warn : keep_alive() was not invoked in the 1000ms timelimit. GDB alive packet not sent! (60003). Workaround: increase "set remotetimeout" in GDB
Warn : keep_alive() was not invoked in the 1000ms timelimit. GDB alive packet not sent! (60059). Workaround: increase "set remotetimeout" in GDB
Warn : keep_alive() was not invoked in the 1000ms timelimit. GDB alive packet not sent! (60003). Workaround: increase "set remotetimeout" in GDB
Warn : keep_alive() was not invoked in the 1000ms timelimit. GDB alive packet not sent! (60060). Workaround: increase "set remotetimeout" in GDB
Warn : keep_alive() was not invoked in the 1000ms timelimit. GDB alive packet not sent! (60013). Workaround: increase "set remotetimeout" in GDB
Warn : keep_alive() was not invoked in the 1000ms timelimit. GDB alive packet not sent! (60060). Workaround: increase "set remotetimeout" in GDB
Warn : keep_alive() was not invoked in the 1000ms timelimit. GDB alive packet not sent! (60013). Workaround: increase "set remotetimeout" in GDB
Warn : keep_alive() was not invoked in the 1000ms timelimit. GDB alive packet not sent! (60058). Workaround: increase "set remotetimeout" in GDB
Warn : keep_alive() was not invoked in the 1000ms timelimit. GDB alive packet not sent! (60055). Workaround: increase "set remotetimeout" in GDB
Warn : keep_alive() was not invoked in the 1000ms timelimit. GDB alive packet not sent! (60021). Workaround: increase "set remotetimeout" in GDB
Warn : keep_alive() was not invoked in the 1000ms timelimit. GDB alive packet not sent! (60060). Workaround: increase "set remotetimeout" in GDB
Warn : keep_alive() was not invoked in the 1000ms timelimit. GDB alive packet not sent! (60032). Workaround: increase "set remotetimeout" in GDB
Warn : keep_alive() was not invoked in the 1000ms timelimit. GDB alive packet not sent! (60058). Workaround: increase "set remotetimeout" in GDB
Warn : keep_alive() was not invoked in the 1000ms timelimit. GDB alive packet not sent! (60029). Workaround: increase "set remotetimeout" in GDB
Warn : keep_alive() was not invoked in the 1000ms timelimit. GDB alive packet not sent! (60013). Workaround: increase "set remotetimeout" in GDB
Warn : keep_alive() was not invoked in the 1000ms timelimit. GDB alive packet not sent! (60058). Workaround: increase "set remotetimeout" in GDB
Warn : keep_alive() was not invoked in the 1000ms timelimit. GDB alive packet not sent! (60032). Workaround: increase "set remotetimeout" in GDB
Warn : keep_alive() was not invoked in the 1000ms timelimit. GDB alive packet not sent! (60021). Workaround: increase "set remotetimeout" in GDB
Warn : keep_alive() was not invoked in the 1000ms timelimit. GDB alive packet not sent! (60032). Workaround: increase "set remotetimeout" in GDB
Warn : keep_alive() was not invoked in the 1000ms timelimit. GDB alive packet not sent! (60040). Workaround: increase "set remotetimeout" in GDB
Warn : keep_alive() was not invoked in the 1000ms timelimit. GDB alive packet not sent! (60056). Workaround: increase "set remotetimeout" in GDB
Warn : keep_alive() was not invoked in the 1000ms timelimit. GDB alive packet not sent! (60017). Workaround: increase "set remotetimeout" in GDB
Warn : keep_alive() was not invoked in the 1000ms timelimit. GDB alive packet not sent! (60025). Workaround: increase "set remotetimeout" in GDB
Warn : keep_alive() was not invoked in the 1000ms timelimit. GDB alive packet not sent! (60005). Workaround: increase "set remotetimeout" in GDB
Warn : keep_alive() was not invoked in the 1000ms timelimit. GDB alive packet not sent! (60032). Workaround: increase "set remotetimeout" in GDB
Warn : keep_alive() was not invoked in the 1000ms timelimit. GDB alive packet not sent! (60024). Workaround: increase "set remotetimeout" in GDB
Warn : keep_alive() was not invoked in the 1000ms timelimit. GDB alive packet not sent! (60013). Workaround: increase "set remotetimeout" in GDB
Warn : keep_alive() was not invoked in the 1000ms timelimit. GDB alive packet not sent! (60045). Workaround: increase "set remotetimeout" in GDB
Warn : keep_alive() was not invoked in the 1000ms timelimit. GDB alive packet not sent! (60058). Workaround: increase "set remotetimeout" in GDB
Warn : keep_alive() was not invoked in the 1000ms timelimit. GDB alive packet not sent! (60001). Workaround: increase "set remotetimeout" in GDB
Warn : keep_alive() was not invoked in the 1000ms timelimit. GDB alive packet not sent! (60039). Workaround: increase "set remotetimeout" in GDB
Warn : keep_alive() was not invoked in the 1000ms timelimit. GDB alive packet not sent! (60056). Workaround: increase "set remotetimeout" in GDB
Warn : keep_alive() was not invoked in the 1000ms timelimit. GDB alive packet not sent! (60056). Workaround: increase "set remotetimeout" in GDB
Warn : keep_alive() was not invoked in the 1000ms timelimit. GDB alive packet not sent! (60051). Workaround: increase "set remotetimeout" in GDB
Warn : keep_alive() was not invoked in the 1000ms timelimit. GDB alive packet not sent! (60039). Workaround: increase "set remotetimeout" in GDB
Warn : keep_alive() was not invoked in the 1000ms timelimit. GDB alive packet not sent! (60045). Workaround: increase "set remotetimeout" in GDB
Warn : keep_alive() was not invoked in the 1000ms timelimit. GDB alive packet not sent! (60027). Workaround: increase "set remotetimeout" in GDB
Warn : keep_alive() was not invoked in the 1000ms timelimit. GDB alive packet not sent! (60058). Workaround: increase "set remotetimeout" in GDB
Warn : keep_alive() was not invoked in the 1000ms timelimit. GDB alive packet not sent! (60029). Workaround: increase "set remotetimeout" in GDB
Warn : keep_alive() was not invoked in the 1000ms timelimit. GDB alive packet not sent! (60003). Workaround: increase "set remotetimeout" in GDB
Warn : keep_alive() was not invoked in the 1000ms timelimit. GDB alive packet not sent! (60047). Workaround: increase "set remotetimeout" in GDB
Warn : keep_alive() was not invoked in the 1000ms timelimit. GDB alive packet not sent! (60060). Workaround: increase "set remotetimeout" in GDB
Warn : keep_alive() was not invoked in the 1000ms timelimit. GDB alive packet not sent! (60036). Workaround: increase "set remotetimeout" in GDB
Warn : keep_alive() was not invoked in the 1000ms timelimit. GDB alive packet not sent! (60060). Workaround: increase "set remotetimeout" in GDB
Warn : keep_alive() was not invoked in the 1000ms timelimit. GDB alive packet not sent! (60028). Workaround: increase "set remotetimeout" in GDB
Warn : keep_alive() was not invoked in the 1000ms timelimit. GDB alive packet not sent! (60037). Workaround: increase "set remotetimeout" in GDB
Warn : keep_alive() was not invoked in the 1000ms timelimit. GDB alive packet not sent! (60012). Workaround: increase "set remotetimeout" in GDB
Warn : keep_alive() was not invoked in the 1000ms timelimit. GDB alive packet not sent! (60051). Workaround: increase "set remotetimeout" in GDB
Warn : keep_alive() was not invoked in the 1000ms timelimit. GDB alive packet not sent! (60060). Workaround: increase "set remotetimeout" in GDB
Warn : keep_alive() was not invoked in the 1000ms timelimit. GDB alive packet not sent! (60060). Workaround: increase "set remotetimeout" in GDB
Warn : keep_alive() was not invoked in the 1000ms timelimit. GDB alive packet not sent! (60048). Workaround: increase "set remotetimeout" in GDB
Warn : keep_alive() was not invoked in the 1000ms timelimit. GDB alive packet not sent! (60058). Workaround: increase "set remotetimeout" in GDB
Warn : keep_alive() was not invoked in the 1000ms timelimit. GDB alive packet not sent! (60057). Workaround: increase "set remotetimeout" in GDB
Warn : keep_alive() was not invoked in the 1000ms timelimit. GDB alive packet not sent! (60003). Workaround: increase "set remotetimeout" in GDB
Warn : keep_alive() was not invoked in the 1000ms timelimit. GDB alive packet not sent! (60023). Workaround: increase "set remotetimeout" in GDB
Warn : keep_alive() was not invoked in the 1000ms timelimit. GDB alive packet not sent! (60004). Workaround: increase "set remotetimeout" in GDB
Warn : keep_alive() was not invoked in the 1000ms timelimit. GDB alive packet not sent! (60002). Workaround: increase "set remotetimeout" in GDB
Warn : keep_alive() was not invoked in the 1000ms timelimit. GDB alive packet not sent! (60003). Workaround: increase "set remotetimeout" in GDB
Warn : keep_alive() was not invoked in the 1000ms timelimit. GDB alive packet not sent! (60021). Workaround: increase "set remotetimeout" in GDB
Warn : keep_alive() was not invoked in the 1000ms timelimit. GDB alive packet not sent! (60049). Workaround: increase "set remotetimeout" in GDB
Warn : keep_alive() was not invoked in the 1000ms timelimit. GDB alive packet not sent! (60053). Workaround: increase "set remotetimeout" in GDB
Warn : keep_alive() was not invoked in the 1000ms timelimit. GDB alive packet not sent! (60053). Workaround: increase "set remotetimeout" in GDB
Warn : keep_alive() was not invoked in the 1000ms timelimit. GDB alive packet not sent! (60060). Workaround: increase "set remotetimeout" in GDB
Warn : keep_alive() was not invoked in the 1000ms timelimit. GDB alive packet not sent! (60043). Workaround: increase "set remotetimeout" in GDB
Warn : keep_alive() was not invoked in the 1000ms timelimit. GDB alive packet not sent! (60049). Workaround: increase "set remotetimeout" in GDB
Warn : keep_alive() was not invoked in the 1000ms timelimit. GDB alive packet not sent! (60025). Workaround: increase "set remotetimeout" in GDB
Warn : keep_alive() was not invoked in the 1000ms timelimit. GDB alive packet not sent! (60044). Workaround: increase "set remotetimeout" in GDB
Warn : keep_alive() was not invoked in the 1000ms timelimit. GDB alive packet not sent! (60057). Workaround: increase "set remotetimeout" in GDB
Warn : keep_alive() was not invoked in the 1000ms timelimit. GDB alive packet not sent! (60033). Workaround: increase "set remotetimeout" in GDB
Warn : keep_alive() was not invoked in the 1000ms timelimit. GDB alive packet not sent! (60054). Workaround: increase "set remotetimeout" in GDB
Warn : keep_alive() was not invoked in the 1000ms timelimit. GDB alive packet not sent! (60003). Workaround: increase "set remotetimeout" in GDB
Warn : keep_alive() was not invoked in the 1000ms timelimit. GDB alive packet not sent! (60057). Workaround: increase "set remotetimeout" in GDB
Warn : keep_alive() was not invoked in the 1000ms timelimit. GDB alive packet not sent! (60043). Workaround: increase "set remotetimeout" in GDB
Warn : keep_alive() was not invoked in the 1000ms timelimit. GDB alive packet not sent! (60037). Workaround: increase "set remotetimeout" in GDB
Warn : keep_alive() was not invoked in the 1000ms timelimit. GDB alive packet not sent! (60004). Workaround: increase "set remotetimeout" in GDB
Warn : keep_alive() was not invoked in the 1000ms timelimit. GDB alive packet not sent! (60032). Workaround: increase "set remotetimeout" in GDB
Warn : keep_alive() was not invoked in the 1000ms timelimit. GDB alive packet not sent! (60061). Workaround: increase "set remotetimeout" in GDB
Warn : keep_alive() was not invoked in the 1000ms timelimit. GDB alive packet not sent! (60046). Workaround: increase "set remotetimeout" in GDB
Warn : keep_alive() was not invoked in the 1000ms timelimit. GDB alive packet not sent! (60021). Workaround: increase "set remotetimeout" in GDB
Warn : keep_alive() was not invoked in the 1000ms timelimit. GDB alive packet not sent! (60025). Workaround: increase "set remotetimeout" in GDB
Warn : keep_alive() was not invoked in the 1000ms timelimit. GDB alive packet not sent! (60012). Workaround: increase "set remotetimeout" in GDB
Warn : keep_alive() was not invoked in the 1000ms timelimit. GDB alive packet not sent! (60045). Workaround: increase "set remotetimeout" in GDB
Warn : keep_alive() was not invoked in the 1000ms timelimit. GDB alive packet not sent! (60029). Workaround: increase "set remotetimeout" in GDB
Warn : keep_alive() was not invoked in the 1000ms timelimit. GDB alive packet not sent! (60036). Workaround: increase "set remotetimeout" in GDB
Warn : keep_alive() was not invoked in the 1000ms timelimit. GDB alive packet not sent! (60048). Workaround: increase "set remotetimeout" in GDB
Warn : keep_alive() was not invoked in the 1000ms timelimit. GDB alive packet not sent! (60050). Workaround: increase "set remotetimeout" in GDB
Warn : keep_alive() was not invoked in the 1000ms timelimit. GDB alive packet not sent! (60060). Workaround: increase "set remotetimeout" in GDB
Warn : keep_alive() was not invoked in the 1000ms timelimit. GDB alive packet not sent! (60038). Workaround: increase "set remotetimeout" in GDB
Warn : keep_alive() was not invoked in the 1000ms timelimit. GDB alive packet not sent! (60027). Workaround: increase "set remotetimeout" in GDB
Warn : keep_alive() was not invoked in the 1000ms timelimit. GDB alive packet not sent! (60058). Workaround: increase "set remotetimeout" in GDB
Warn : keep_alive() was not invoked in the 1000ms timelimit. GDB alive packet not sent! (60044). Workaround: increase "set remotetimeout" in GDB
Warn : keep_alive() was not invoked in the 1000ms timelimit. GDB alive packet not sent! (60055). Workaround: increase "set remotetimeout" in GDB
Warn : keep_alive() was not invoked in the 1000ms timelimit. GDB alive packet not sent! (60008). Workaround: increase "set remotetimeout" in GDB
Warn : keep_alive() was not invoked in the 1000ms timelimit. GDB alive packet not sent! (60038). Workaround: increase "set remotetimeout" in GDB
Warn : keep_alive() was not invoked in the 1000ms timelimit. GDB alive packet not sent! (60039). Workaround: increase "set remotetimeout" in GDB
Warn : keep_alive() was not invoked in the 1000ms timelimit. GDB alive packet not sent! (60060). Workaround: increase "set remotetimeout" in GDB
Warn : keep_alive() was not invoked in the 1000ms timelimit. GDB alive packet not sent! (60002). Workaround: increase "set remotetimeout" in GDB
Warn : keep_alive() was not invoked in the 1000ms timelimit. GDB alive packet not sent! (60028). Workaround: increase "set remotetimeout" in GDB
Warn : keep_alive() was not invoked in the 1000ms timelimit. GDB alive packet not sent! (60058). Workaround: increase "set remotetimeout" in GDB
Warn : keep_alive() was not invoked in the 1000ms timelimit. GDB alive packet not sent! (60060). Workaround: increase "set remotetimeout" in GDB
Warn : keep_alive() was not invoked in the 1000ms timelimit. GDB alive packet not sent! (60031). Workaround: increase "set remotetimeout" in GDB
Warn : keep_alive() was not invoked in the 1000ms timelimit. GDB alive packet not sent! (60060). Workaround: increase "set remotetimeout" in GDB
Warn : keep_alive() was not invoked in the 1000ms timelimit. GDB alive packet not sent! (60033). Workaround: increase "set remotetimeout" in GDB
Warn : keep_alive() was not invoked in the 1000ms timelimit. GDB alive packet not sent! (60018). Workaround: increase "set remotetimeout" in GDB
Warn : keep_alive() was not invoked in the 1000ms timelimit. GDB alive packet not sent! (60027). Workaround: increase "set remotetimeout" in GDB
Warn : keep_alive() was not invoked in the 1000ms timelimit. GDB alive packet not sent! (60042). Workaround: increase "set remotetimeout" in GDB
Warn : keep_alive() was not invoked in the 1000ms timelimit. GDB alive packet not sent! (60021). Workaround: increase "set remotetimeout" in GDB
Warn : keep_alive() was not invoked in the 1000ms timelimit. GDB alive packet not sent! (60057). Workaround: increase "set remotetimeout" in GDB
Warn : keep_alive() was not invoked in the 1000ms timelimit. GDB alive packet not sent! (60060). Workaround: increase "set remotetimeout" in GDB
Warn : keep_alive() was not invoked in the 1000ms timelimit. GDB alive packet not sent! (60023). Workaround: increase "set remotetimeout" in GDB
Warn : keep_alive() was not invoked in the 1000ms timelimit. GDB alive packet not sent! (60043). Workaround: increase "set remotetimeout" in GDB
Warn : keep_alive() was not invoked in the 1000ms timelimit. GDB alive packet not sent! (60034). Workaround: increase "set remotetimeout" in GDB
Warn : keep_alive() was not invoked in the 1000ms timelimit. GDB alive packet not sent! (60059). Workaround: increase "set remotetimeout" in GDB
Warn : keep_alive() was not invoked in the 1000ms timelimit. GDB alive packet not sent! (60003). Workaround: increase "set remotetimeout" in GDB
Warn : keep_alive() was not invoked in the 1000ms timelimit. GDB alive packet not sent! (60015). Workaround: increase "set remotetimeout" in GDB
Warn : keep_alive() was not invoked in the 1000ms timelimit. GDB alive packet not sent! (60038). Workaround: increase "set remotetimeout" in GDB
Warn : keep_alive() was not invoked in the 1000ms timelimit. GDB alive packet not sent! (60012). Workaround: increase "set remotetimeout" in GDB
Warn : keep_alive() was not invoked in the 1000ms timelimit. GDB alive packet not sent! (60045). Workaround: increase "set remotetimeout" in GDB
Warn : keep_alive() was not invoked in the 1000ms timelimit. GDB alive packet not sent! (60001). Workaround: increase "set remotetimeout" in GDB
Warn : keep_alive() was not invoked in the 1000ms timelimit. GDB alive packet not sent! (60026). Workaround: increase "set remotetimeout" in GDB
Warn : keep_alive() was not invoked in the 1000ms timelimit. GDB alive packet not sent! (60007). Workaround: increase "set remotetimeout" in GDB
Warn : keep_alive() was not invoked in the 1000ms timelimit. GDB alive packet not sent! (60060). Workaround: increase "set remotetimeout" in GDB
Warn : keep_alive() was not invoked in the 1000ms timelimit. GDB alive packet not sent! (60051). Workaround: increase "set remotetimeout" in GDB
Warn : keep_alive() was not invoked in the 1000ms timelimit. GDB alive packet not sent! (60057). Workaround: increase "set remotetimeout" in GDB
Warn : keep_alive() was not invoked in the 1000ms timelimit. GDB alive packet not sent! (60060). Workaround: increase "set remotetimeout" in GDB
Warn : keep_alive() was not invoked in the 1000ms timelimit. GDB alive packet not sent! (60002). Workaround: increase "set remotetimeout" in GDB
Warn : keep_alive() was not invoked in the 1000ms timelimit. GDB alive packet not sent! (60052). Workaround: increase "set remotetimeout" in GDB
Warn : keep_alive() was not invoked in the 1000ms timelimit. GDB alive packet not sent! (60017). Workaround: increase "set remotetimeout" in GDB
Warn : keep_alive() was not invoked in the 1000ms timelimit. GDB alive packet not sent! (60056). Workaround: increase "set remotetimeout" in GDB
Warn : keep_alive() was not invoked in the 1000ms timelimit. GDB alive packet not sent! (60009). Workaround: increase "set remotetimeout" in GDB
Warn : keep_alive() was not invoked in the 1000ms timelimit. GDB alive packet not sent! (60043). Workaround: increase "set remotetimeout" in GDB
Warn : keep_alive() was not invoked in the 1000ms timelimit. GDB alive packet not sent! (60042). Workaround: increase "set remotetimeout" in GDB
Warn : keep_alive() was not invoked in the 1000ms timelimit. GDB alive packet not sent! (60011). Workaround: increase "set remotetimeout" in GDB
Warn : keep_alive() was not invoked in the 1000ms timelimit. GDB alive packet not sent! (60009). Workaround: increase "set remotetimeout" in GDB
Warn : keep_alive() was not invoked in the 1000ms timelimit. GDB alive packet not sent! (60060). Workaround: increase "set remotetimeout" in GDB
Warn : keep_alive() was not invoked in the 1000ms timelimit. GDB alive packet not sent! (60033). Workaround: increase "set remotetimeout" in GDB
Warn : keep_alive() was not invoked in the 1000ms timelimit. GDB alive packet not sent! (60004). Workaround: increase "set remotetimeout" in GDB
Warn : keep_alive() was not invoked in the 1000ms timelimit. GDB alive packet not sent! (60019). Workaround: increase "set remotetimeout" in GDB
Warn : keep_alive() was not invoked in the 1000ms timelimit. GDB alive packet not sent! (60047). Workaround: increase "set remotetimeout" in GDB
Warn : keep_alive() was not invoked in the 1000ms timelimit. GDB alive packet not sent! (60060). Workaround: increase "set remotetimeout" in GDB
Warn : keep_alive() was not invoked in the 1000ms timelimit. GDB alive packet not sent! (60055). Workaround: increase "set remotetimeout" in GDB
Warn : keep_alive() was not invoked in the 1000ms timelimit. GDB alive packet not sent! (60040). Workaround: increase "set remotetimeout" in GDB
Warn : keep_alive() was not invoked in the 1000ms timelimit. GDB alive packet not sent! (60046). Workaround: increase "set remotetimeout" in GDB
Warn : keep_alive() was not invoked in the 1000ms timelimit. GDB alive packet not sent! (60058). Workaround: increase "set remotetimeout" in GDB
Warn : keep_alive() was not invoked in the 1000ms timelimit. GDB alive packet not sent! (60037). Workaround: increase "set remotetimeout" in GDB
Warn : keep_alive() was not invoked in the 1000ms timelimit. GDB alive packet not sent! (60001). Workaround: increase "set remotetimeout" in GDB
Warn : keep_alive() was not invoked in the 1000ms timelimit. GDB alive packet not sent! (60022). Workaround: increase "set remotetimeout" in GDB
Warn : keep_alive() was not invoked in the 1000ms timelimit. GDB alive packet not sent! (60047). Workaround: increase "set remotetimeout" in GDB
Warn : keep_alive() was not invoked in the 1000ms timelimit. GDB alive packet not sent! (60059). Workaround: increase "set remotetimeout" in GDB
Warn : keep_alive() was not invoked in the 1000ms timelimit. GDB alive packet not sent! (60006). Workaround: increase "set remotetimeout" in GDB
Warn : keep_alive() was not invoked in the 1000ms timelimit. GDB alive packet not sent! (60034). Workaround: increase "set remotetimeout" in GDB
Warn : keep_alive() was not invoked in the 1000ms timelimit. GDB alive packet not sent! (60005). Workaround: increase "set remotetimeout" in GDB
Warn : keep_alive() was not invoked in the 1000ms timelimit. GDB alive packet not sent! (60007). Workaround: increase "set remotetimeout" in GDB
Warn : keep_alive() was not invoked in the 1000ms timelimit. GDB alive packet not sent! (60047). Workaround: increase "set remotetimeout" in GDB
Warn : keep_alive() was not invoked in the 1000ms timelimit. GDB alive packet not sent! (60041). Workaround: increase "set remotetimeout" in GDB
Warn : keep_alive() was not invoked in the 1000ms timelimit. GDB alive packet not sent! (60024). Workaround: increase "set remotetimeout" in GDB
Warn : keep_alive() was not invoked in the 1000ms timelimit. GDB alive packet not sent! (60059). Workaround: increase "set remotetimeout" in GDB
Warn : keep_alive() was not invoked in the 1000ms timelimit. GDB alive packet not sent! (60008). Workaround: increase "set remotetimeout" in GDB
Warn : keep_alive() was not invoked in the 1000ms timelimit. GDB alive packet not sent! (60060). Workaround: increase "set remotetimeout" in GDB
Warn : keep_alive() was not invoked in the 1000ms timelimit. GDB alive packet not sent! (60049). Workaround: increase "set remotetimeout" in GDB
Warn : keep_alive() was not invoked in the 1000ms timelimit. GDB alive packet not sent! (60007). Workaround: increase "set remotetimeout" in GDB
Warn : keep_alive() was not invoked in the 1000ms timelimit. GDB alive packet not sent! (60043). Workaround: increase "set remotetimeout" in GDB
Warn : keep_alive() was not invoked in the 1000ms timelimit. GDB alive packet not sent! (60060). Workaround: increase "set remotetimeout" in GDB
Warn : keep_alive() was not invoked in the 1000ms timelimit. GDB alive packet not sent! (60044). Workaround: increase "set remotetimeout" in GDB
Warn : keep_alive() was not invoked in the 1000ms timelimit. GDB alive packet not sent! (60048). Workaround: increase "set remotetimeout" in GDB
Warn : keep_alive() was not invoked in the 1000ms timelimit. GDB alive packet not sent! (60050). Workaround: increase "set remotetimeout" in GDB
Warn : keep_alive() was not invoked in the 1000ms timelimit. GDB alive packet not sent! (60039). Workaround: increase "set remotetimeout" in GDB
Warn : keep_alive() was not invoked in the 1000ms timelimit. GDB alive packet not sent! (60058). Workaround: increase "set remotetimeout" in GDB
Warn : keep_alive() was not invoked in the 1000ms timelimit. GDB alive packet not sent! (60020). Workaround: increase "set remotetimeout" in GDB
Warn : keep_alive() was not invoked in the 1000ms timelimit. GDB alive packet not sent! (60001). Workaround: increase "set remotetimeout" in GDB
Warn : keep_alive() was not invoked in the 1000ms timelimit. GDB alive packet not sent! (60014). Workaround: increase "set remotetimeout" in GDB
Warn : keep_alive() was not invoked in the 1000ms timelimit. GDB alive packet not sent! (60021). Workaround: increase "set remotetimeout" in GDB
Warn : keep_alive() was not invoked in the 1000ms timelimit. GDB alive packet not sent! (60044). Workaround: increase "set remotetimeout" in GDB
Warn : keep_alive() was not invoked in the 1000ms timelimit. GDB alive packet not sent! (60037). Workaround: increase "set remotetimeout" in GDB
Warn : keep_alive() was not invoked in the 1000ms timelimit. GDB alive packet not sent! (60036). Workaround: increase "set remotetimeout" in GDB
Warn : keep_alive() was not invoked in the 1000ms timelimit. GDB alive packet not sent! (60030). Workaround: increase "set remotetimeout" in GDB
Warn : keep_alive() was not invoked in the 1000ms timelimit. GDB alive packet not sent! (60011). Workaround: increase "set remotetimeout" in GDB
Warn : keep_alive() was not invoked in the 1000ms timelimit. GDB alive packet not sent! (60026). Workaround: increase "set remotetimeout" in GDB
Warn : keep_alive() was not invoked in the 1000ms timelimit. GDB alive packet not sent! (60061). Workaround: increase "set remotetimeout" in GDB
Warn : keep_alive() was not invoked in the 1000ms timelimit. GDB alive packet not sent! (60060). Workaround: increase "set remotetimeout" in GDB
Warn : keep_alive() was not invoked in the 1000ms timelimit. GDB alive packet not sent! (60028). Workaround: increase "set remotetimeout" in GDB
Warn : keep_alive() was not invoked in the 1000ms timelimit. GDB alive packet not sent! (60045). Workaround: increase "set remotetimeout" in GDB
Warn : keep_alive() was not invoked in the 1000ms timelimit. GDB alive packet not sent! (60039). Workaround: increase "set remotetimeout" in GDB
Warn : keep_alive() was not invoked in the 1000ms timelimit. GDB alive packet not sent! (60002). Workaround: increase "set remotetimeout" in GDB
Warn : keep_alive() was not invoked in the 1000ms timelimit. GDB alive packet not sent! (60032). Workaround: increase "set remotetimeout" in GDB
Warn : keep_alive() was not invoked in the 1000ms timelimit. GDB alive packet not sent! (60043). Workaround: increase "set remotetimeout" in GDB
Warn : keep_alive() was not invoked in the 1000ms timelimit. GDB alive packet not sent! (60039). Workaround: increase "set remotetimeout" in GDB
Warn : keep_alive() was not invoked in the 1000ms timelimit. GDB alive packet not sent! (60022). Workaround: increase "set remotetimeout" in GDB
Warn : keep_alive() was not invoked in the 1000ms timelimit. GDB alive packet not sent! (60044). Workaround: increase "set remotetimeout" in GDB
Warn : keep_alive() was not invoked in the 1000ms timelimit. GDB alive packet not sent! (60055). Workaround: increase "set remotetimeout" in GDB
Warn : keep_alive() was not invoked in the 1000ms timelimit. GDB alive packet not sent! (60030). Workaround: increase "set remotetimeout" in GDB
Warn : keep_alive() was not invoked in the 1000ms timelimit. GDB alive packet not sent! (60043). Workaround: increase "set remotetimeout" in GDB
Warn : keep_alive() was not invoked in the 1000ms timelimit. GDB alive packet not sent! (60043). Workaround: increase "set remotetimeout" in GDB
Warn : keep_alive() was not invoked in the 1000ms timelimit. GDB alive packet not sent! (60049). Workaround: increase "set remotetimeout" in GDB
Warn : keep_alive() was not invoked in the 1000ms timelimit. GDB alive packet not sent! (60051). Workaround: increase "set remotetimeout" in GDB
Warn : keep_alive() was not invoked in the 1000ms timelimit. GDB alive packet not sent! (60044). Workaround: increase "set remotetimeout" in GDB
Warn : keep_alive() was not invoked in the 1000ms timelimit. GDB alive packet not sent! (60026). Workaround: increase "set remotetimeout" in GDB
Warn : keep_alive() was not invoked in the 1000ms timelimit. GDB alive packet not sent! (60057). Workaround: increase "set remotetimeout" in GDB
Warn : keep_alive() was not invoked in the 1000ms timelimit. GDB alive packet not sent! (60008). Workaround: increase "set remotetimeout" in GDB
Warn : keep_alive() was not invoked in the 1000ms timelimit. GDB alive packet not sent! (60015). Workaround: increase "set remotetimeout" in GDB
Warn : keep_alive() was not invoked in the 1000ms timelimit. GDB alive packet not sent! (60007). Workaround: increase "set remotetimeout" in GDB
Warn : keep_alive() was not invoked in the 1000ms timelimit. GDB alive packet not sent! (60033). Workaround: increase "set remotetimeout" in GDB
Warn : keep_alive() was not invoked in the 1000ms timelimit. GDB alive packet not sent! (60008). Workaround: increase "set remotetimeout" in GDB
Warn : keep_alive() was not invoked in the 1000ms timelimit. GDB alive packet not sent! (60058). Workaround: increase "set remotetimeout" in GDB
Warn : keep_alive() was not invoked in the 1000ms timelimit. GDB alive packet not sent! (60060). Workaround: increase "set remotetimeout" in GDB
Warn : keep_alive() was not invoked in the 1000ms timelimit. GDB alive packet not sent! (60019). Workaround: increase "set remotetimeout" in GDB
Warn : keep_alive() was not invoked in the 1000ms timelimit. GDB alive packet not sent! (60057). Workaround: increase "set remotetimeout" in GDB
Warn : keep_alive() was not invoked in the 1000ms timelimit. GDB alive packet not sent! (60055). Workaround: increase "set remotetimeout" in GDB
Warn : keep_alive() was not invoked in the 1000ms timelimit. GDB alive packet not sent! (60056). Workaround: increase "set remotetimeout" in GDB
Warn : keep_alive() was not invoked in the 1000ms timelimit. GDB alive packet not sent! (60043). Workaround: increase "set remotetimeout" in GDB
Warn : keep_alive() was not invoked in the 1000ms timelimit. GDB alive packet not sent! (60026). Workaround: increase "set remotetimeout" in GDB
Warn : keep_alive() was not invoked in the 1000ms timelimit. GDB alive packet not sent! (60027). Workaround: increase "set remotetimeout" in GDB
Warn : keep_alive() was not invoked in the 1000ms timelimit. GDB alive packet not sent! (60058). Workaround: increase "set remotetimeout" in GDB
Warn : keep_alive() was not invoked in the 1000ms timelimit. GDB alive packet not sent! (60027). Workaround: increase "set remotetimeout" in GDB
Warn : keep_alive() was not invoked in the 1000ms timelimit. GDB alive packet not sent! (60034). Workaround: increase "set remotetimeout" in GDB
Warn : keep_alive() was not invoked in the 1000ms timelimit. GDB alive packet not sent! (60007). Workaround: increase "set remotetimeout" in GDB
Warn : keep_alive() was not invoked in the 1000ms timelimit. GDB alive packet not sent! (60052). Workaround: increase "set remotetimeout" in GDB
Warn : keep_alive() was not invoked in the 1000ms timelimit. GDB alive packet not sent! (60055). Workaround: increase "set remotetimeout" in GDB
Warn : keep_alive() was not invoked in the 1000ms timelimit. GDB alive packet not sent! (60029). Workaround: increase "set remotetimeout" in GDB
Warn : keep_alive() was not invoked in the 1000ms timelimit. GDB alive packet not sent! (60006). Workaround: increase "set remotetimeout" in GDB
Warn : keep_alive() was not invoked in the 1000ms timelimit. GDB alive packet not sent! (60019). Workaround: increase "set remotetimeout" in GDB
Warn : keep_alive() was not invoked in the 1000ms timelimit. GDB alive packet not sent! (60058). Workaround: increase "set remotetimeout" in GDB
Warn : keep_alive() was not invoked in the 1000ms timelimit. GDB alive packet not sent! (60049). Workaround: increase "set remotetimeout" in GDB
Warn : keep_alive() was not invoked in the 1000ms timelimit. GDB alive packet not sent! (60055). Workaround: increase "set remotetimeout" in GDB
Warn : keep_alive() was not invoked in the 1000ms timelimit. GDB alive packet not sent! (60005). Workaround: increase "set remotetimeout" in GDB
Warn : keep_alive() was not invoked in the 1000ms timelimit. GDB alive packet not sent! (60060). Workaround: increase "set remotetimeout" in GDB
Warn : keep_alive() was not invoked in the 1000ms timelimit. GDB alive packet not sent! (60060). Workaround: increase "set remotetimeout" in GDB
Warn : keep_alive() was not invoked in the 1000ms timelimit. GDB alive packet not sent! (60060). Workaround: increase "set remotetimeout" in GDB
Warn : keep_alive() was not invoked in the 1000ms timelimit. GDB alive packet not sent! (60012). Workaround: increase "set remotetimeout" in GDB
Warn : keep_alive() was not invoked in the 1000ms timelimit. GDB alive packet not sent! (60033). Workaround: increase "set remotetimeout" in GDB
Warn : keep_alive() was not invoked in the 1000ms timelimit. GDB alive packet not sent! (60055). Workaround: increase "set remotetimeout" in GDB
Warn : keep_alive() was not invoked in the 1000ms timelimit. GDB alive packet not sent! (60060). Workaround: increase "set remotetimeout" in GDB
Warn : keep_alive() was not invoked in the 1000ms timelimit. GDB alive packet not sent! (60048). Workaround: increase "set remotetimeout" in GDB
Warn : keep_alive() was not invoked in the 1000ms timelimit. GDB alive packet not sent! (60048). Workaround: increase "set remotetimeout" in GDB
Warn : keep_alive() was not invoked in the 1000ms timelimit. GDB alive packet not sent! (60060). Workaround: increase "set remotetimeout" in GDB
Warn : keep_alive() was not invoked in the 1000ms timelimit. GDB alive packet not sent! (60049). Workaround: increase "set remotetimeout" in GDB
Warn : keep_alive() was not invoked in the 1000ms timelimit. GDB alive packet not sent! (60021). Workaround: increase "set remotetimeout" in GDB
Warn : keep_alive() was not invoked in the 1000ms timelimit. GDB alive packet not sent! (60060). Workaround: increase "set remotetimeout" in GDB
Warn : keep_alive() was not invoked in the 1000ms timelimit. GDB alive packet not sent! (60020). Workaround: increase "set remotetimeout" in GDB
Warn : keep_alive() was not invoked in the 1000ms timelimit. GDB alive packet not sent! (60060). Workaround: increase "set remotetimeout" in GDB
Warn : keep_alive() was not invoked in the 1000ms timelimit. GDB alive packet not sent! (60041). Workaround: increase "set remotetimeout" in GDB
Warn : keep_alive() was not invoked in the 1000ms timelimit. GDB alive packet not sent! (60060). Workaround: increase "set remotetimeout" in GDB
Warn : keep_alive() was not invoked in the 1000ms timelimit. GDB alive packet not sent! (60060). Workaround: increase "set remotetimeout" in GDB
Warn : keep_alive() was not invoked in the 1000ms timelimit. GDB alive packet not sent! (60061). Workaround: increase "set remotetimeout" in GDB
Warn : keep_alive() was not invoked in the 1000ms timelimit. GDB alive packet not sent! (60060). Workaround: increase "set remotetimeout" in GDB
Warn : keep_alive() was not invoked in the 1000ms timelimit. GDB alive packet not sent! (60055). Workaround: increase "set remotetimeout" in GDB
Warn : keep_alive() was not invoked in the 1000ms timelimit. GDB alive packet not sent! (60022). Workaround: increase "set remotetimeout" in GDB
Warn : keep_alive() was not invoked in the 1000ms timelimit. GDB alive packet not sent! (60060). Workaround: increase "set remotetimeout" in GDB
Warn : keep_alive() was not invoked in the 1000ms timelimit. GDB alive packet not sent! (60060). Workaround: increase "set remotetimeout" in GDB
Warn : keep_alive() was not invoked in the 1000ms timelimit. GDB alive packet not sent! (60060). Workaround: increase "set remotetimeout" in GDB
Warn : keep_alive() was not invoked in the 1000ms timelimit. GDB alive packet not sent! (60013). Workaround: increase "set remotetimeout" in GDB
Warn : keep_alive() was not invoked in the 1000ms timelimit. GDB alive packet not sent! (60060). Workaround: increase "set remotetimeout" in GDB
Warn : keep_alive() was not invoked in the 1000ms timelimit. GDB alive packet not sent! (60060). Workaround: increase "set remotetimeout" in GDB
Warn : keep_alive() was not invoked in the 1000ms timelimit. GDB alive packet not sent! (60060). Workaround: increase "set remotetimeout" in GDB
Warn : keep_alive() was not invoked in the 1000ms timelimit. GDB alive packet not sent! (60009). Workaround: increase "set remotetimeout" in GDB
Warn : keep_alive() was not invoked in the 1000ms timelimit. GDB alive packet not sent! (60019). Workaround: increase "set remotetimeout" in GDB
Warn : keep_alive() was not invoked in the 1000ms timelimit. GDB alive packet not sent! (60004). Workaround: increase "set remotetimeout" in GDB
Warn : keep_alive() was not invoked in the 1000ms timelimit. GDB alive packet not sent! (60022). Workaround: increase "set remotetimeout" in GDB
Warn : keep_alive() was not invoked in the 1000ms timelimit. GDB alive packet not sent! (60060). Workaround: increase "set remotetimeout" in GDB
Warn : keep_alive() was not invoked in the 1000ms timelimit. GDB alive packet not sent! (60060). Workaround: increase "set remotetimeout" in GDB
Warn : keep_alive() was not invoked in the 1000ms timelimit. GDB alive packet not sent! (60060). Workaround: increase "set remotetimeout" in GDB
Warn : keep_alive() was not invoked in the 1000ms timelimit. GDB alive packet not sent! (60016). Workaround: increase "set remotetimeout" in GDB
Warn : keep_alive() was not invoked in the 1000ms timelimit. GDB alive packet not sent! (60060). Workaround: increase "set remotetimeout" in GDB
Warn : keep_alive() was not invoked in the 1000ms timelimit. GDB alive packet not sent! (60061). Workaround: increase "set remotetimeout" in GDB
Warn : keep_alive() was not invoked in the 1000ms timelimit. GDB alive packet not sent! (60060). Workaround: increase "set remotetimeout" in GDB
Warn : keep_alive() was not invoked in the 1000ms timelimit. GDB alive packet not sent! (60060). Workaround: increase "set remotetimeout" in GDB
Warn : keep_alive() was not invoked in the 1000ms timelimit. GDB alive packet not sent! (60060). Workaround: increase "set remotetimeout" in GDB
Warn : keep_alive() was not invoked in the 1000ms timelimit. GDB alive packet not sent! (60054). Workaround: increase "set remotetimeout" in GDB
Warn : keep_alive() was not invoked in the 1000ms timelimit. GDB alive packet not sent! (60060). Workaround: increase "set remotetimeout" in GDB
Warn : keep_alive() was not invoked in the 1000ms timelimit. GDB alive packet not sent! (60046). Workaround: increase "set remotetimeout" in GDB
Warn : keep_alive() was not invoked in the 1000ms timelimit. GDB alive packet not sent! (60060). Workaround: increase "set remotetimeout" in GDB
Warn : keep_alive() was not invoked in the 1000ms timelimit. GDB alive packet not sent! (60059). Workaround: increase "set remotetimeout" in GDB
Warn : keep_alive() was not invoked in the 1000ms timelimit. GDB alive packet not sent! (60008). Workaround: increase "set remotetimeout" in GDB
Warn : keep_alive() was not invoked in the 1000ms timelimit. GDB alive packet not sent! (60060). Workaround: increase "set remotetimeout" in GDB
Warn : keep_alive() was not invoked in the 1000ms timelimit. GDB alive packet not sent! (60061). Workaround: increase "set remotetimeout" in GDB
Warn : keep_alive() was not invoked in the 1000ms timelimit. GDB alive packet not sent! (60060). Workaround: increase "set remotetimeout" in GDB
Warn : keep_alive() was not invoked in the 1000ms timelimit. GDB alive packet not sent! (60060). Workaround: increase "set remotetimeout" in GDB
Warn : keep_alive() was not invoked in the 1000ms timelimit. GDB alive packet not sent! (60060). Workaround: increase "set remotetimeout" in GDB
Warn : keep_alive() was not invoked in the 1000ms timelimit. GDB alive packet not sent! (60022). Workaround: increase "set remotetimeout" in GDB
Warn : keep_alive() was not invoked in the 1000ms timelimit. GDB alive packet not sent! (60060). Workaround: increase "set remotetimeout" in GDB
Warn : keep_alive() was not invoked in the 1000ms timelimit. GDB alive packet not sent! (60047). Workaround: increase "set remotetimeout" in GDB
Warn : keep_alive() was not invoked in the 1000ms timelimit. GDB alive packet not sent! (60038). Workaround: increase "set remotetimeout" in GDB
Warn : keep_alive() was not invoked in the 1000ms timelimit. GDB alive packet not sent! (60060). Workaround: increase "set remotetimeout" in GDB
Warn : keep_alive() was not invoked in the 1000ms timelimit. GDB alive packet not sent! (60048). Workaround: increase "set remotetimeout" in GDB
Warn : keep_alive() was not invoked in the 1000ms timelimit. GDB alive packet not sent! (60048). Workaround: increase "set remotetimeout" in GDB
Warn : keep_alive() was not invoked in the 1000ms timelimit. GDB alive packet not sent! (60060). Workaround: increase "set remotetimeout" in GDB
Warn : keep_alive() was not invoked in the 1000ms timelimit. GDB alive packet not sent! (60037). Workaround: increase "set remotetimeout" in GDB
Warn : keep_alive() was not invoked in the 1000ms timelimit. GDB alive packet not sent! (60060). Workaround: increase "set remotetimeout" in GDB
Warn : keep_alive() was not invoked in the 1000ms timelimit. GDB alive packet not sent! (60058). Workaround: increase "set remotetimeout" in GDB
Warn : keep_alive() was not invoked in the 1000ms timelimit. GDB alive packet not sent! (60060). Workaround: increase "set remotetimeout" in GDB
Warn : keep_alive() was not invoked in the 1000ms timelimit. GDB alive packet not sent! (60060). Workaround: increase "set remotetimeout" in GDB
Warn : keep_alive() was not invoked in the 1000ms timelimit. GDB alive packet not sent! (60002). Workaround: increase "set remotetimeout" in GDB
Warn : keep_alive() was not invoked in the 1000ms timelimit. GDB alive packet not sent! (60060). Workaround: increase "set remotetimeout" in GDB
Warn : keep_alive() was not invoked in the 1000ms timelimit. GDB alive packet not sent! (60060). Workaround: increase "set remotetimeout" in GDB
Warn : keep_alive() was not invoked in the 1000ms timelimit. GDB alive packet not sent! (60060). Workaround: increase "set remotetimeout" in GDB
Warn : keep_alive() was not invoked in the 1000ms timelimit. GDB alive packet not sent! (60060). Workaround: increase "set remotetimeout" in GDB
Warn : keep_alive() was not invoked in the 1000ms timelimit. GDB alive packet not sent! (60060). Workaround: increase "set remotetimeout" in GDB
Warn : keep_alive() was not invoked in the 1000ms timelimit. GDB alive packet not sent! (60058). Workaround: increase "set remotetimeout" in GDB
Warn : keep_alive() was not invoked in the 1000ms timelimit. GDB alive packet not sent! (60060). Workaround: increase "set remotetimeout" in GDB
Warn : keep_alive() was not invoked in the 1000ms timelimit. GDB alive packet not sent! (60060). Workaround: increase "set remotetimeout" in GDB
Warn : keep_alive() was not invoked in the 1000ms timelimit. GDB alive packet not sent! (60060). Workaround: increase "set remotetimeout" in GDB
Warn : keep_alive() was not invoked in the 1000ms timelimit. GDB alive packet not sent! (60060). Workaround: increase "set remotetimeout" in GDB
Warn : keep_alive() was not invoked in the 1000ms timelimit. GDB alive packet not sent! (60035). Workaround: increase "set remotetimeout" in GDB
Warn : keep_alive() was not invoked in the 1000ms timelimit. GDB alive packet not sent! (60061). Workaround: increase "set remotetimeout" in GDB
Warn : keep_alive() was not invoked in the 1000ms timelimit. GDB alive packet not sent! (60060). Workaround: increase "set remotetimeout" in GDB
Warn : keep_alive() was not invoked in the 1000ms timelimit. GDB alive packet not sent! (60047). Workaround: increase "set remotetimeout" in GDB
Warn : keep_alive() was not invoked in the 1000ms timelimit. GDB alive packet not sent! (60060). Workaround: increase "set remotetimeout" in GDB
Warn : keep_alive() was not invoked in the 1000ms timelimit. GDB alive packet not sent! (60060). Workaround: increase "set remotetimeout" in GDB
Warn : keep_alive() was not invoked in the 1000ms timelimit. GDB alive packet not sent! (60003). Workaround: increase "set remotetimeout" in GDB
Warn : keep_alive() was not invoked in the 1000ms timelimit. GDB alive packet not sent! (60060). Workaround: increase "set remotetimeout" in GDB
Warn : keep_alive() was not invoked in the 1000ms timelimit. GDB alive packet not sent! (60060). Workaround: increase "set remotetimeout" in GDB
Warn : keep_alive() was not invoked in the 1000ms timelimit. GDB alive packet not sent! (60024). Workaround: increase "set remotetimeout" in GDB
Warn : keep_alive() was not invoked in the 1000ms timelimit. GDB alive packet not sent! (60050). Workaround: increase "set remotetimeout" in GDB
Warn : keep_alive() was not invoked in the 1000ms timelimit. GDB alive packet not sent! (60060). Workaround: increase "set remotetimeout" in GDB
Warn : keep_alive() was not invoked in the 1000ms timelimit. GDB alive packet not sent! (60036). Workaround: increase "set remotetimeout" in GDB
Warn : keep_alive() was not invoked in the 1000ms timelimit. GDB alive packet not sent! (60049). Workaround: increase "set remotetimeout" in GDB
Warn : keep_alive() was not invoked in the 1000ms timelimit. GDB alive packet not sent! (60014). Workaround: increase "set remotetimeout" in GDB
Warn : keep_alive() was not invoked in the 1000ms timelimit. GDB alive packet not sent! (60060). Workaround: increase "set remotetimeout" in GDB
Warn : keep_alive() was not invoked in the 1000ms timelimit. GDB alive packet not sent! (60061). Workaround: increase "set remotetimeout" in GDB
Warn : keep_alive() was not invoked in the 1000ms timelimit. GDB alive packet not sent! (60034). Workaround: increase "set remotetimeout" in GDB
Warn : keep_alive() was not invoked in the 1000ms timelimit. GDB alive packet not sent! (60060). Workaround: increase "set remotetimeout" in GDB
Warn : keep_alive() was not invoked in the 1000ms timelimit. GDB alive packet not sent! (60061). Workaround: increase "set remotetimeout" in GDB
Warn : keep_alive() was not invoked in the 1000ms timelimit. GDB alive packet not sent! (60060). Workaround: increase "set remotetimeout" in GDB
Warn : keep_alive() was not invoked in the 1000ms timelimit. GDB alive packet not sent! (60060). Workaround: increase "set remotetimeout" in GDB
Warn : keep_alive() was not invoked in the 1000ms timelimit. GDB alive packet not sent! (60060). Workaround: increase "set remotetimeout" in GDB
Warn : keep_alive() was not invoked in the 1000ms timelimit. GDB alive packet not sent! (60060). Workaround: increase "set remotetimeout" in GDB
Warn : keep_alive() was not invoked in the 1000ms timelimit. GDB alive packet not sent! (60038). Workaround: increase "set remotetimeout" in GDB
Warn : keep_alive() was not invoked in the 1000ms timelimit. GDB alive packet not sent! (60060). Workaround: increase "set remotetimeout" in GDB
Warn : keep_alive() was not invoked in the 1000ms timelimit. GDB alive packet not sent! (60060). Workaround: increase "set remotetimeout" in GDB
Warn : keep_alive() was not invoked in the 1000ms timelimit. GDB alive packet not sent! (60060). Workaround: increase "set remotetimeout" in GDB
Warn : keep_alive() was not invoked in the 1000ms timelimit. GDB alive packet not sent! (60060). Workaround: increase "set remotetimeout" in GDB
Warn : keep_alive() was not invoked in the 1000ms timelimit. GDB alive packet not sent! (60008). Workaround: increase "set remotetimeout" in GDB
Warn : keep_alive() was not invoked in the 1000ms timelimit. GDB alive packet not sent! (60010). Workaround: increase "set remotetimeout" in GDB
Warn : keep_alive() was not invoked in the 1000ms timelimit. GDB alive packet not sent! (60016). Workaround: increase "set remotetimeout" in GDB
Warn : keep_alive() was not invoked in the 1000ms timelimit. GDB alive packet not sent! (60060). Workaround: increase "set remotetimeout" in GDB
Warn : keep_alive() was not invoked in the 1000ms timelimit. GDB alive packet not sent! (60060). Workaround: increase "set remotetimeout" in GDB
Warn : keep_alive() was not invoked in the 1000ms timelimit. GDB alive packet not sent! (60060). Workaround: increase "set remotetimeout" in GDB
Warn : keep_alive() was not invoked in the 1000ms timelimit. GDB alive packet not sent! (60060). Workaround: increase "set remotetimeout" in GDB
Warn : keep_alive() was not invoked in the 1000ms timelimit. GDB alive packet not sent! (60060). Workaround: increase "set remotetimeout" in GDB
Warn : keep_alive() was not invoked in the 1000ms timelimit. GDB alive packet not sent! (60061). Workaround: increase "set remotetimeout" in GDB
Warn : keep_alive() was not invoked in the 1000ms timelimit. GDB alive packet not sent! (60060). Workaround: increase "set remotetimeout" in GDB
Warn : keep_alive() was not invoked in the 1000ms timelimit. GDB alive packet not sent! (60060). Workaround: increase "set remotetimeout" in GDB
Warn : keep_alive() was not invoked in the 1000ms timelimit. GDB alive packet not sent! (60060). Workaround: increase "set remotetimeout" in GDB
Warn : keep_alive() was not invoked in the 1000ms timelimit. GDB alive packet not sent! (60060). Workaround: increase "set remotetimeout" in GDB
Warn : keep_alive() was not invoked in the 1000ms timelimit. GDB alive packet not sent! (60000). Workaround: increase "set remotetimeout" in GDB
Warn : keep_alive() was not invoked in the 1000ms timelimit. GDB alive packet not sent! (60060). Workaround: increase "set remotetimeout" in GDB
Warn : keep_alive() was not invoked in the 1000ms timelimit. GDB alive packet not sent! (60060). Workaround: increase "set remotetimeout" in GDB
Warn : keep_alive() was not invoked in the 1000ms timelimit. GDB alive packet not sent! (60048). Workaround: increase "set remotetimeout" in GDB
Warn : keep_alive() was not invoked in the 1000ms timelimit. GDB alive packet not sent! (60061). Workaround: increase "set remotetimeout" in GDB
Warn : keep_alive() was not invoked in the 1000ms timelimit. GDB alive packet not sent! (60060). Workaround: increase "set remotetimeout" in GDB
Warn : keep_alive() was not invoked in the 1000ms timelimit. GDB alive packet not sent! (60060). Workaround: increase "set remotetimeout" in GDB
Warn : keep_alive() was not invoked in the 1000ms timelimit. GDB alive packet not sent! (60040). Workaround: increase "set remotetimeout" in GDB
Warn : keep_alive() was not invoked in the 1000ms timelimit. GDB alive packet not sent! (60060). Workaround: increase "set remotetimeout" in GDB
Warn : keep_alive() was not invoked in the 1000ms timelimit. GDB alive packet not sent! (60040). Workaround: increase "set remotetimeout" in GDB
Warn : keep_alive() was not invoked in the 1000ms timelimit. GDB alive packet not sent! (60060). Workaround: increase "set remotetimeout" in GDB
Warn : keep_alive() was not invoked in the 1000ms timelimit. GDB alive packet not sent! (60060). Workaround: increase "set remotetimeout" in GDB
Warn : keep_alive() was not invoked in the 1000ms timelimit. GDB alive packet not sent! (60035). Workaround: increase "set remotetimeout" in GDB
Warn : keep_alive() was not invoked in the 1000ms timelimit. GDB alive packet not sent! (60012). Workaround: increase "set remotetimeout" in GDB
Warn : keep_alive() was not invoked in the 1000ms timelimit. GDB alive packet not sent! (60008). Workaround: increase "set remotetimeout" in GDB
Warn : keep_alive() was not invoked in the 1000ms timelimit. GDB alive packet not sent! (60018). Workaround: increase "set remotetimeout" in GDB
Warn : keep_alive() was not invoked in the 1000ms timelimit. GDB alive packet not sent! (60048). Workaround: increase "set remotetimeout" in GDB
Warn : keep_alive() was not invoked in the 1000ms timelimit. GDB alive packet not sent! (60048). Workaround: increase "set remotetimeout" in GDB
Warn : keep_alive() was not invoked in the 1000ms timelimit. GDB alive packet not sent! (60023). Workaround: increase "set remotetimeout" in GDB
Warn : keep_alive() was not invoked in the 1000ms timelimit. GDB alive packet not sent! (60060). Workaround: increase "set remotetimeout" in GDB
Warn : keep_alive() was not invoked in the 1000ms timelimit. GDB alive packet not sent! (60060). Workaround: increase "set remotetimeout" in GDB
Warn : keep_alive() was not invoked in the 1000ms timelimit. GDB alive packet not sent! (60032). Workaround: increase "set remotetimeout" in GDB
Warn : keep_alive() was not invoked in the 1000ms timelimit. GDB alive packet not sent! (60014). Workaround: increase "set remotetimeout" in GDB
Warn : keep_alive() was not invoked in the 1000ms timelimit. GDB alive packet not sent! (60001). Workaround: increase "set remotetimeout" in GDB
Warn : keep_alive() was not invoked in the 1000ms timelimit. GDB alive packet not sent! (60004). Workaround: increase "set remotetimeout" in GDB
Warn : keep_alive() was not invoked in the 1000ms timelimit. GDB alive packet not sent! (60060). Workaround: increase "set remotetimeout" in GDB
[...]
Warn : keep_alive() was not invoked in the 1000ms timelimit. GDB alive packet not sent! (60048). Workaround: increase "set remotetimeout" in GDB
Warn : keep_alive() was not invoked in the 1000ms timelimit. GDB alive packet not sent! (60004). Workaround: increase "set remotetimeout" in GDB
Warn : keep_alive() was not invoked in the 1000ms timelimit. GDB alive packet not sent! (60060). Workaround: increase "set remotetimeout" in GDB
Warn : keep_alive() was not invoked in the 1000ms timelimit. GDB alive packet not sent! (60060). Workaround: increase "set remotetimeout" in GDB
Warn : keep_alive() was not invoked in the 1000ms timelimit. GDB alive packet not sent! (60029). Workaround: increase "set remotetimeout" in GDB
Warn : keep_alive() was not invoked in the 1000ms timelimit. GDB alive packet not sent! (60060). Workaround: increase "set remotetimeout" in GDB
Warn : keep_alive() was not invoked in the 1000ms timelimit. GDB alive packet not sent! (60060). Workaround: increase "set remotetimeout" in GDB
Warn : keep_alive() was not invoked in the 1000ms timelimit. GDB alive packet not sent! (60060). Workaround: increase "set remotetimeout" in GDB
Warn : keep_alive() was not invoked in the 1000ms timelimit. GDB alive packet not sent! (60060). Workaround: increase "set remotetimeout" in GDB
Warn : keep_alive() was not invoked in the 1000ms timelimit. GDB alive packet not sent! (60060). Workaround: increase "set remotetimeout" in GDB
Warn : keep_alive() was not invoked in the 1000ms timelimit. GDB alive packet not sent! (60060). Workaround: increase "set remotetimeout" in GDB
Warn : keep_alive() was not invoked in the 1000ms timelimit. GDB alive packet not sent! (60014). Workaround: increase "set remotetimeout" in GDB
Warn : keep_alive() was not invoked in the 1000ms timelimit. GDB alive packet not sent! (60024). Workaround: increase "set remotetimeout" in GDB
Warn : keep_alive() was not invoked in the 1000ms timelimit. GDB alive packet not sent! (60054). Workaround: increase "set remotetimeout" in GDB
Warn : keep_alive() was not invoked in the 1000ms timelimit. GDB alive packet not sent! (60015). Workaround: increase "set remotetimeout" in GDB
Warn : keep_alive() was not invoked in the 1000ms timelimit. GDB alive packet not sent! (60060). Workaround: increase "set remotetimeout" in GDB
Warn : keep_alive() was not invoked in the 1000ms timelimit. GDB alive packet not sent! (60059). Workaround: increase "set remotetimeout" in GDB
Warn : keep_alive() was not invoked in the 1000ms timelimit. GDB alive packet not sent! (60039). Workaround: increase "set remotetimeout" in GDB
Warn : keep_alive() was not invoked in the 1000ms timelimit. GDB alive packet not sent! (60013). Workaround: increase "set remotetimeout" in GDB
Warn : keep_alive() was not invoked in the 1000ms timelimit. GDB alive packet not sent! (60035). Workaround: increase "set remotetimeout" in GDB
Warn : keep_alive() was not invoked in the 1000ms timelimit. GDB alive packet not sent! (60057). Workaround: increase "set remotetimeout" in GDB
Warn : keep_alive() was not invoked in the 1000ms timelimit. GDB alive packet not sent! (60046). Workaround: increase "set remotetimeout" in GDB
Warn : keep_alive() was not invoked in the 1000ms timelimit. GDB alive packet not sent! (60037). Workaround: increase "set remotetimeout" in GDB
Warn : keep_alive() was not invoked in the 1000ms timelimit. GDB alive packet not sent! (60060). Workaround: increase "set remotetimeout" in GDB
Warn : keep_alive() was not invoked in the 1000ms timelimit. GDB alive packet not sent! (60055). Workaround: increase "set remotetimeout" in GDB
Warn : keep_alive() was not invoked in the 1000ms timelimit. GDB alive packet not sent! (60055). Workaround: increase "set remotetimeout" in GDB
Warn : keep_alive() was not invoked in the 1000ms timelimit. GDB alive packet not sent! (60021). Workaround: increase "set remotetimeout" in GDB
Warn : keep_alive() was not invoked in the 1000ms timelimit. GDB alive packet not sent! (60058). Workaround: increase "set remotetimeout" in GDB
Warn : keep_alive() was not invoked in the 1000ms timelimit. GDB alive packet not sent! (60037). Workaround: increase "set remotetimeout" in GDB
Warn : keep_alive() was not invoked in the 1000ms timelimit. GDB alive packet not sent! (60059). Workaround: increase "set remotetimeout" in GDB
Warn : keep_alive() was not invoked in the 1000ms timelimit. GDB alive packet not sent! (60060). Workaround: increase "set remotetimeout" in GDB
Warn : keep_alive() was not invoked in the 1000ms timelimit. GDB alive packet not sent! (60006). Workaround: increase "set remotetimeout" in GDB
Warn : keep_alive() was not invoked in the 1000ms timelimit. GDB alive packet not sent! (60058). Workaround: increase "set remotetimeout" in GDB
Warn : keep_alive() was not invoked in the 1000ms timelimit. GDB alive packet not sent! (60057). Workaround: increase "set remotetimeout" in GDB
Warn : keep_alive() was not invoked in the 1000ms timelimit. GDB alive packet not sent! (60059). Workaround: increase "set remotetimeout" in GDB
Warn : keep_alive() was not invoked in the 1000ms timelimit. GDB alive packet not sent! (60060). Workaround: increase "set remotetimeout" in GDB
Warn : keep_alive() was not invoked in the 1000ms timelimit. GDB alive packet not sent! (60039). Workaround: increase "set remotetimeout" in GDB
Warn : keep_alive() was not invoked in the 1000ms timelimit. GDB alive packet not sent! (60045). Workaround: increase "set remotetimeout" in GDB
Warn : keep_alive() was not invoked in the 1000ms timelimit. GDB alive packet not sent! (60060). Workaround: increase "set remotetimeout" in GDB
Warn : keep_alive() was not invoked in the 1000ms timelimit. GDB alive packet not sent! (60032). Workaround: increase "set remotetimeout" in GDB
Warn : keep_alive() was not invoked in the 1000ms timelimit. GDB alive packet not sent! (60052). Workaround: increase "set remotetimeout" in GDB
Warn : keep_alive() was not invoked in the 1000ms timelimit. GDB alive packet not sent! (60060). Workaround: increase "set remotetimeout" in GDB
Warn : keep_alive() was not invoked in the 1000ms timelimit. GDB alive packet not sent! (60010). Workaround: increase "set remotetimeout" in GDB
Warn : keep_alive() was not invoked in the 1000ms timelimit. GDB alive packet not sent! (60058). Workaround: increase "set remotetimeout" in GDB
Warn : keep_alive() was not invoked in the 1000ms timelimit. GDB alive packet not sent! (60026). Workaround: increase "set remotetimeout" in GDB
Warn : keep_alive() was not invoked in the 1000ms timelimit. GDB alive packet not sent! (60015). Workaround: increase "set remotetimeout" in GDB
Warn : keep_alive() was not invoked in the 1000ms timelimit. GDB alive packet not sent! (60059). Workaround: increase "set remotetimeout" in GDB
Warn : keep_alive() was not invoked in the 1000ms timelimit. GDB alive packet not sent! (60059). Workaround: increase "set remotetimeout" in GDB
Warn : keep_alive() was not invoked in the 1000ms timelimit. GDB alive packet not sent! (60023). Workaround: increase "set remotetimeout" in GDB
Warn : keep_alive() was not invoked in the 1000ms timelimit. GDB alive packet not sent! (60044). Workaround: increase "set remotetimeout" in GDB
Warn : keep_alive() was not invoked in the 1000ms timelimit. GDB alive packet not sent! (60058). Workaround: increase "set remotetimeout" in GDB
Warn : keep_alive() was not invoked in the 1000ms timelimit. GDB alive packet not sent! (60050). Workaround: increase "set remotetimeout" in GDB
Warn : keep_alive() was not invoked in the 1000ms timelimit. GDB alive packet not sent! (60058). Workaround: increase "set remotetimeout" in GDB
Warn : keep_alive() was not invoked in the 1000ms timelimit. GDB alive packet not sent! (60060). Workaround: increase "set remotetimeout" in GDB
Warn : keep_alive() was not invoked in the 1000ms timelimit. GDB alive packet not sent! (60056). Workaround: increase "set remotetimeout" in GDB
Warn : keep_alive() was not invoked in the 1000ms timelimit. GDB alive packet not sent! (60059). Workaround: increase "set remotetimeout" in GDB
Warn : keep_alive() was not invoked in the 1000ms timelimit. GDB alive packet not sent! (60053). Workaround: increase "set remotetimeout" in GDB
Warn : keep_alive() was not invoked in the 1000ms timelimit. GDB alive packet not sent! (60057). Workaround: increase "set remotetimeout" in GDB
Warn : keep_alive() was not invoked in the 1000ms timelimit. GDB alive packet not sent! (60059). Workaround: increase "set remotetimeout" in GDB
Warn : keep_alive() was not invoked in the 1000ms timelimit. GDB alive packet not sent! (60060). Workaround: increase "set remotetimeout" in GDB
Warn : keep_alive() was not invoked in the 1000ms timelimit. GDB alive packet not sent! (60056). Workaround: increase "set remotetimeout" in GDB
Warn : keep_alive() was not invoked in the 1000ms timelimit. GDB alive packet not sent! (60051). Workaround: increase "set remotetimeout" in GDB
Warn : keep_alive() was not invoked in the 1000ms timelimit. GDB alive packet not sent! (60054). Workaround: increase "set remotetimeout" in GDB
Warn : keep_alive() was not invoked in the 1000ms timelimit. GDB alive packet not sent! (60017). Workaround: increase "set remotetimeout" in GDB
Warn : keep_alive() was not invoked in the 1000ms timelimit. GDB alive packet not sent! (60050). Workaround: increase "set remotetimeout" in GDB
Warn : keep_alive() was not invoked in the 1000ms timelimit. GDB alive packet not sent! (60049). Workaround: increase "set remotetimeout" in GDB
Warn : keep_alive() was not invoked in the 1000ms timelimit. GDB alive packet not sent! (60041). Workaround: increase "set remotetimeout" in GDB
Warn : keep_alive() was not invoked in the 1000ms timelimit. GDB alive packet not sent! (60056). Workaround: increase "set remotetimeout" in GDB
Warn : keep_alive() was not invoked in the 1000ms timelimit. GDB alive packet not sent! (60008). Workaround: increase "set remotetimeout" in GDB
Warn : keep_alive() was not invoked in the 1000ms timelimit. GDB alive packet not sent! (60059). Workaround: increase "set remotetimeout" in GDB
Warn : keep_alive() was not invoked in the 1000ms timelimit. GDB alive packet not sent! (60058). Workaround: increase "set remotetimeout" in GDB
Warn : keep_alive() was not invoked in the 1000ms timelimit. GDB alive packet not sent! (60005). Workaround: increase "set remotetimeout" in GDB
Warn : keep_alive() was not invoked in the 1000ms timelimit. GDB alive packet not sent! (60025). Workaround: increase "set remotetimeout" in GDB
Warn : keep_alive() was not invoked in the 1000ms timelimit. GDB alive packet not sent! (60022). Workaround: increase "set remotetimeout" in GDB
Warn : keep_alive() was not invoked in the 1000ms timelimit. GDB alive packet not sent! (60054). Workaround: increase "set remotetimeout" in GDB
Warn : keep_alive() was not invoked in the 1000ms timelimit. GDB alive packet not sent! (60052). Workaround: increase "set remotetimeout" in GDB
Warn : keep_alive() was not invoked in the 1000ms timelimit. GDB alive packet not sent! (60038). Workaround: increase "set remotetimeout" in GDB
Warn : keep_alive() was not invoked in the 1000ms timelimit. GDB alive packet not sent! (60058). Workaround: increase "set remotetimeout" in GDB
Warn : keep_alive() was not invoked in the 1000ms timelimit. GDB alive packet not sent! (60059). Workaround: increase "set remotetimeout" in GDB
Warn : keep_alive() was not invoked in the 1000ms timelimit. GDB alive packet not sent! (60029). Workaround: increase "set remotetimeout" in GDB
Warn : keep_alive() was not invoked in the 1000ms timelimit. GDB alive packet not sent! (60019). Workaround: increase "set remotetimeout" in GDB
Warn : keep_alive() was not invoked in the 1000ms timelimit. GDB alive packet not sent! (60056). Workaround: increase "set remotetimeout" in GDB
Warn : keep_alive() was not invoked in the 1000ms timelimit. GDB alive packet not sent! (60060). Workaround: increase "set remotetimeout" in GDB
Warn : keep_alive() was not invoked in the 1000ms timelimit. GDB alive packet not sent! (60060). Workaround: increase "set remotetimeout" in GDB
Warn : keep_alive() was not invoked in the 1000ms timelimit. GDB alive packet not sent! (60060). Workaround: increase "set remotetimeout" in GDB
Warn : keep_alive() was not invoked in the 1000ms timelimit. GDB alive packet not sent! (60060). Workaround: increase "set remotetimeout" in GDB
Warn : keep_alive() was not invoked in the 1000ms timelimit. GDB alive packet not sent! (60060). Workaround: increase "set remotetimeout" in GDB
Warn : keep_alive() was not invoked in the 1000ms timelimit. GDB alive packet not sent! (60060). Workaround: increase "set remotetimeout" in GDB
Warn : keep_alive() was not invoked in the 1000ms timelimit. GDB alive packet not sent! (60047). Workaround: increase "set remotetimeout" in GDB
Warn : keep_alive() was not invoked in the 1000ms timelimit. GDB alive packet not sent! (60057). Workaround: increase "set remotetimeout" in GDB
Warn : keep_alive() was not invoked in the 1000ms timelimit. GDB alive packet not sent! (60101). Workaround: increase "set remotetimeout" in GDB
Warn : keep_alive() was not invoked in the 1000ms timelimit. GDB alive packet not sent! (60059). Workaround: increase "set remotetimeout" in GDB
Warn : keep_alive() was not invoked in the 1000ms timelimit. GDB alive packet not sent! (60059). Workaround: increase "set remotetimeout" in GDB
Warn : keep_alive() was not invoked in the 1000ms timelimit. GDB alive packet not sent! (60010). Workaround: increase "set remotetimeout" in GDB
Warn : keep_alive() was not invoked in the 1000ms timelimit. GDB alive packet not sent! (60028). Workaround: increase "set remotetimeout" in GDB
Warn : keep_alive() was not invoked in the 1000ms timelimit. GDB alive packet not sent! (60038). Workaround: increase "set remotetimeout" in GDB
Warn : keep_alive() was not invoked in the 1000ms timelimit. GDB alive packet not sent! (60069). Workaround: increase "set remotetimeout" in GDB
Warn : keep_alive() was not invoked in the 1000ms timelimit. GDB alive packet not sent! (60055). Workaround: increase "set remotetimeout" in GDB
Warn : keep_alive() was not invoked in the 1000ms timelimit. GDB alive packet not sent! (60058). Workaround: increase "set remotetimeout" in GDB
Warn : keep_alive() was not invoked in the 1000ms timelimit. GDB alive packet not sent! (60060). Workaround: increase "set remotetimeout" in GDB
Warn : keep_alive() was not invoked in the 1000ms timelimit. GDB alive packet not sent! (60060). Workaround: increase "set remotetimeout" in GDB
Warn : keep_alive() was not invoked in the 1000ms timelimit. GDB alive packet not sent! (60015). Workaround: increase "set remotetimeout" in GDB
Warn : keep_alive() was not invoked in the 1000ms timelimit. GDB alive packet not sent! (60027). Workaround: increase "set remotetimeout" in GDB
Warn : keep_alive() was not invoked in the 1000ms timelimit. GDB alive packet not sent! (60025). Workaround: increase "set remotetimeout" in GDB
Warn : keep_alive() was not invoked in the 1000ms timelimit. GDB alive packet not sent! (60056). Workaround: increase "set remotetimeout" in GDB
Warn : keep_alive() was not invoked in the 1000ms timelimit. GDB alive packet not sent! (60012). Workaround: increase "set remotetimeout" in GDB
Warn : keep_alive() was not invoked in the 1000ms timelimit. GDB alive packet not sent! (60056). Workaround: increase "set remotetimeout" in GDB
Warn : keep_alive() was not invoked in the 1000ms timelimit. GDB alive packet not sent! (60041). Workaround: increase "set remotetimeout" in GDB
Warn : keep_alive() was not invoked in the 1000ms timelimit. GDB alive packet not sent! (60059). Workaround: increase "set remotetimeout" in GDB
Warn : keep_alive() was not invoked in the 1000ms timelimit. GDB alive packet not sent! (60054). Workaround: increase "set remotetimeout" in GDB
Warn : keep_alive() was not invoked in the 1000ms timelimit. GDB alive packet not sent! (60055). Workaround: increase "set remotetimeout" in GDB
Warn : keep_alive() was not invoked in the 1000ms timelimit. GDB alive packet not sent! (60040). Workaround: increase "set remotetimeout" in GDB
Warn : keep_alive() was not invoked in the 1000ms timelimit. GDB alive packet not sent! (60060). Workaround: increase "set remotetimeout" in GDB
Warn : keep_alive() was not invoked in the 1000ms timelimit. GDB alive packet not sent! (60059). Workaround: increase "set remotetimeout" in GDB
Warn : keep_alive() was not invoked in the 1000ms timelimit. GDB alive packet not sent! (60060). Workaround: increase "set remotetimeout" in GDB
Warn : keep_alive() was not invoked in the 1000ms timelimit. GDB alive packet not sent! (60002). Workaround: increase "set remotetimeout" in GDB
Warn : keep_alive() was not invoked in the 1000ms timelimit. GDB alive packet not sent! (60057). Workaround: increase "set remotetimeout" in GDB
Warn : keep_alive() was not invoked in the 1000ms timelimit. GDB alive packet not sent! (60043). Workaround: increase "set remotetimeout" in GDB
Warn : keep_alive() was not invoked in the 1000ms timelimit. GDB alive packet not sent! (60058). Workaround: increase "set remotetimeout" in GDB
Warn : keep_alive() was not invoked in the 1000ms timelimit. GDB alive packet not sent! (60060). Workaround: increase "set remotetimeout" in GDB
Warn : keep_alive() was not invoked in the 1000ms timelimit. GDB alive packet not sent! (60059). Workaround: increase "set remotetimeout" in GDB
Warn : keep_alive() was not invoked in the 1000ms timelimit. GDB alive packet not sent! (60017). Workaround: increase "set remotetimeout" in GDB
Warn : keep_alive() was not invoked in the 1000ms timelimit. GDB alive packet not sent! (60004). Workaround: increase "set remotetimeout" in GDB
Warn : keep_alive() was not invoked in the 1000ms timelimit. GDB alive packet not sent! (60060). Workaround: increase "set remotetimeout" in GDB
Warn : keep_alive() was not invoked in the 1000ms timelimit. GDB alive packet not sent! (60060). Workaround: increase "set remotetimeout" in GDB
Warn : keep_alive() was not invoked in the 1000ms timelimit. GDB alive packet not sent! (60059). Workaround: increase "set remotetimeout" in GDB
Warn : keep_alive() was not invoked in the 1000ms timelimit. GDB alive packet not sent! (60059). Workaround: increase "set remotetimeout" in GDB
Warn : keep_alive() was not invoked in the 1000ms timelimit. GDB alive packet not sent! (60057). Workaround: increase "set remotetimeout" in GDB
Warn : keep_alive() was not invoked in the 1000ms timelimit. GDB alive packet not sent! (60057). Workaround: increase "set remotetimeout" in GDB
Warn : keep_alive() was not invoked in the 1000ms timelimit. GDB alive packet not sent! (60057). Workaround: increase "set remotetimeout" in GDB
Warn : keep_alive() was not invoked in the 1000ms timelimit. GDB alive packet not sent! (60053). Workaround: increase "set remotetimeout" in GDB
Warn : keep_alive() was not invoked in the 1000ms timelimit. GDB alive packet not sent! (60058). Workaround: increase "set remotetimeout" in GDB
Warn : keep_alive() was not invoked in the 1000ms timelimit. GDB alive packet not sent! (60060). Workaround: increase "set remotetimeout" in GDB
Warn : keep_alive() was not invoked in the 1000ms timelimit. GDB alive packet not sent! (60060). Workaround: increase "set remotetimeout" in GDB
Warn : keep_alive() was not invoked in the 1000ms timelimit. GDB alive packet not sent! (60049). Workaround: increase "set remotetimeout" in GDB
Warn : keep_alive() was not invoked in the 1000ms timelimit. GDB alive packet not sent! (61640). Workaround: increase "set remotetimeout" in GDB
Warn : keep_alive() was not invoked in the 1000ms timelimit. GDB alive packet not sent! (65362). Workaround: increase "set remotetimeout" in GDB
