adapter speed: 1000 kHz
Error: session's transport is not selected.
Info : session transport was not selected, defaulting to JTAG
cc3200_dbginit
Info : clock speed 1000 kHz
Info : JTAG tap: cc3200.jrc tap/device found: 0x0b97c02f (mfg: 0x017, part: 0xb97c, ver: 0x0)
Info : JTAG tap: cc3200.dap enabled
Info : cc3200.cpu: hardware has 6 breakpoints, 4 watchpoints
Info : accepting 'gdb' connection from pipe
undefined debug reason 7 - target needs reset
requesting target halt and executing a soft reset
Warn : soft_reset_halt is deprecated, please use 'reset halt' instead.
target state: halted
target halted due to breakpoint, current mode: Thread 
xPSR: 0x01000000 pc: 0x00008d1c msp: 0x20004000
Error: ftdi device did not accept all data: 0, tried 131
Error: unable to purge ftdi rx buffers: LIBUSB_ERROR_NO_DEVICE
Error: error while flushing MPSSE queue: -4
Polling target cc3200.cpu failed, GDB will be halted. Polling again in 100ms
Warn : target cc3200.cpu is not halted
Warn : keep_alive() was not invoked in the 1000ms timelimit. GDB alive packet not sent! (60059). Workaround: increase "set remotetimeout" in GDB
Warn : keep_alive() was not invoked in the 1000ms timelimit. GDB alive packet not sent! (60029). Workaround: increase "set remotetimeout" in GDB
Warn : keep_alive() was not invoked in the 1000ms timelimit. GDB alive packet not sent! (60054). Workaround: increase "set remotetimeout" in GDB
Warn : keep_alive() was not invoked in the 1000ms timelimit. GDB alive packet not sent! (60010). Workaround: increase "set remotetimeout" in GDB
Warn : keep_alive() was not invoked in the 1000ms timelimit. GDB alive packet not sent! (60057). Workaround: increase "set remotetimeout" in GDB
Warn : keep_alive() was not invoked in the 1000ms timelimit. GDB alive packet not sent! (60050). Workaround: increase "set remotetimeout" in GDB
Warn : keep_alive() was not invoked in the 1000ms timelimit. GDB alive packet not sent! (60035). Workaround: increase "set remotetimeout" in GDB
Warn : keep_alive() was not invoked in the 1000ms timelimit. GDB alive packet not sent! (60059). Workaround: increase "set remotetimeout" in GDB
Warn : keep_alive() was not invoked in the 1000ms timelimit. GDB alive packet not sent! (60043). Workaround: increase "set remotetimeout" in GDB
Warn : keep_alive() was not invoked in the 1000ms timelimit. GDB alive packet not sent! (60038). Workaround: increase "set remotetimeout" in GDB
Warn : keep_alive() was not invoked in the 1000ms timelimit. GDB alive packet not sent! (60052). Workaround: increase "set remotetimeout" in GDB
Warn : keep_alive() was not invoked in the 1000ms timelimit. GDB alive packet not sent! (60053). Workaround: increase "set remotetimeout" in GDB
Warn : keep_alive() was not invoked in the 1000ms timelimit. GDB alive packet not sent! (60049). Workaround: increase "set remotetimeout" in GDB
Warn : keep_alive() was not invoked in the 1000ms timelimit. GDB alive packet not sent! (60053). Workaround: increase "set remotetimeout" in GDB
Warn : keep_alive() was not invoked in the 1000ms timelimit. GDB alive packet not sent! (60001). Workaround: increase "set remotetimeout" in GDB
Warn : keep_alive() was not invoked in the 1000ms timelimit. GDB alive packet not sent! (60008). Workaround: increase "set remotetimeout" in GDB
Warn : keep_alive() was not invoked in the 1000ms timelimit. GDB alive packet not sent! (60050). Workaround: increase "set remotetimeout" in GDB
Warn : keep_alive() was not invoked in the 1000ms timelimit. GDB alive packet not sent! (60058). Workaround: increase "set remotetimeout" in GDB
Warn : keep_alive() was not invoked in the 1000ms timelimit. GDB alive packet not sent! (60051). Workaround: increase "set remotetimeout" in GDB
Warn : keep_alive() was not invoked in the 1000ms timelimit. GDB alive packet not sent! (60060). Workaround: increase "set remotetimeout" in GDB
Warn : keep_alive() was not invoked in the 1000ms timelimit. GDB alive packet not sent! (60055). Workaround: increase "set remotetimeout" in GDB
Warn : keep_alive() was not invoked in the 1000ms timelimit. GDB alive packet not sent! (60044). Workaround: increase "set remotetimeout" in GDB
Warn : keep_alive() was not invoked in the 1000ms timelimit. GDB alive packet not sent! (60020). Workaround: increase "set remotetimeout" in GDB
Warn : keep_alive() was not invoked in the 1000ms timelimit. GDB alive packet not sent! (60055). Workaround: increase "set remotetimeout" in GDB
Warn : keep_alive() was not invoked in the 1000ms timelimit. GDB alive packet not sent! (60036). Workaround: increase "set remotetimeout" in GDB
Warn : keep_alive() was not invoked in the 1000ms timelimit. GDB alive packet not sent! (60039). Workaround: increase "set remotetimeout" in GDB
Warn : keep_alive() was not invoked in the 1000ms timelimit. GDB alive packet not sent! (60012). Workaround: increase "set remotetimeout" in GDB
Warn : keep_alive() was not invoked in the 1000ms timelimit. GDB alive packet not sent! (60038). Workaround: increase "set remotetimeout" in GDB
Warn : keep_alive() was not invoked in the 1000ms timelimit. GDB alive packet not sent! (60042). Workaround: increase "set remotetimeout" in GDB
Warn : keep_alive() was not invoked in the 1000ms timelimit. GDB alive packet not sent! (60059). Workaround: increase "set remotetimeout" in GDB
Warn : keep_alive() was not invoked in the 1000ms timelimit. GDB alive packet not sent! (60041). Workaround: increase "set remotetimeout" in GDB
Warn : keep_alive() was not invoked in the 1000ms timelimit. GDB alive packet not sent! (60057). Workaround: increase "set remotetimeout" in GDB
Warn : keep_alive() was not invoked in the 1000ms timelimit. GDB alive packet not sent! (60056). Workaround: increase "set remotetimeout" in GDB
Warn : keep_alive() was not invoked in the 1000ms timelimit. GDB alive packet not sent! (60060). Workaround: increase "set remotetimeout" in GDB
Warn : keep_alive() was not invoked in the 1000ms timelimit. GDB alive packet not sent! (60029). Workaround: increase "set remotetimeout" in GDB
Warn : keep_alive() was not invoked in the 1000ms timelimit. GDB alive packet not sent! (60059). Workaround: increase "set remotetimeout" in GDB
Warn : keep_alive() was not invoked in the 1000ms timelimit. GDB alive packet not sent! (60051). Workaround: increase "set remotetimeout" in GDB
Warn : keep_alive() was not invoked in the 1000ms timelimit. GDB alive packet not sent! (60037). Workaround: increase "set remotetimeout" in GDB
Warn : keep_alive() was not invoked in the 1000ms timelimit. GDB alive packet not sent! (60057). Workaround: increase "set remotetimeout" in GDB
Warn : keep_alive() was not invoked in the 1000ms timelimit. GDB alive packet not sent! (60053). Workaround: increase "set remotetimeout" in GDB
Warn : keep_alive() was not invoked in the 1000ms timelimit. GDB alive packet not sent! (8676). Workaround: increase "set remotetimeout" in GDB
Warn : keep_alive() was not invoked in the 1000ms timelimit. GDB alive packet not sent! (60053). Workaround: increase "set remotetimeout" in GDB
